==PAGE:1==
Department of Chemical and Biochemical Engineering
Technical University of Denmark
Numerical Fluid Dynamic
Investigation of a Lactic Acid
Bacteria Fermentation
By
Jens Glibstrup, s123917
Supervisors:
Ulrich Krühne
Christophe Roca
Robert Spann
June 22, 2017
==PAGE:2==
Acknowledgements
I would like to thank my supervisor Ulrich Krühne for both the opportunity to pursue this
thesis and for his continued advice and help throughout it. My PhD student supervisor Robert
Spann also deserves my gratitude for the immense work that it must have been to help me write
this thesis and provide a wall to bounce ideas oﬀof.
My thanks furthermore goes out to Chr.
Hansen for allowing this project to be available,
and for their help in understanding the pilot reactor.
I would also like to thank PhD student Christian Bach for his help with modelling the car-
bonate buﬀer system and PhD student Jifeng Yang for his advice concerning CFD modelling.
Lastly, I would like to thank my family for raising and supporting me throughout the years.
i
==PAGE:3==
Abstract
Computer ﬂuid dynamics(CFD) has become a valuable tool in developing new reactor designs
and understanding the ﬂuid behaviour in current designs. Combined with kinetic models, it has
become possible to investigate the combined eﬀect of ﬂuid proﬁles and kinetic reaction mecha-
nisms.
The aim of this thesis is to create a CFD model of a Chr.
Hansen pilot scale lactic acid
bacteria (LAB) fermentation reactor that is able to predict the ﬂuid behaviour, the pH gradi-
ents during a fermentation and their combined eﬀect on the fermentation process. To do this,
a 3-D model of the pilot scale reactor was created in SolidWorks, meshed in ANSYS ICEM and
modelled in ANSYS CFX. It was found that the ﬂuid proﬁle of the model is transient in nature,
and could not accurately be predicted using a ﬁxed velocity proﬁle. The model was validated
against experimental mixing data using NaOH and H3PO4 pulses at two impeller speeds; 132
and 242 rpm. The pH was measured at six points in the reactor, which were replicated in the
CFD model. The transient 242 rpm CFD model was found to ﬁt the experimental data of pulses
with NaOH well, having a 46 s mixing time to the experimental 47 s. This was not the case for
the 132 rpm data set, where the CFD mixing time was 83 s, and the NaOH pulse was 54 s. An
error in the experimental procedure was suspected to be the cause of this discrepancy, but with
only a single data set available to compare with, certainty on the matter could not be achieved.
To simulate the LAB fermentation, a kinetic model was developed by Robert Spann, which
was combined with a pH correlation that linked the concentrations of the lactic acid and the
NH3 that was used for pH control. It was found necessary to reduce the computational time by
implementing a steady state ﬂuid proﬁle that resembled the transient mixing time. With this
simpliﬁcation, it was found that the CFD reactor model was almost able to accurately simulate
the kinetic model with 1 s time steps and an RMS of 1e-5. Testing on a simpler reactor revealed
that the issue was an accumulation of errors, which could be solved with lower time steps or
RMS values. The kinetic model was furthermore found to have a 20 min too large lag time
coeﬃcient, but was otherwise considered to accurately predict the kinetic behaviour. Similarly,
the pH correlation was found to predict the pH trends well, but it also needed to be ﬁtted to
the experimental data set’s initial pH to be fully accurate.
Overall, the CFD model has shown promise in understanding and testing LAB fermentations
and the pH gradients in LAB reactors. The high computational requirements were considered
an issue that required further work for eﬀective usage of the model. A possible solution to
this was proposed for future work, but could not be implemented within the time frame of this
thesis.
ii
==PAGE:4==
Abbreviations
AARD
Absolute Average Relative Deviation
CFD
Computational ﬂuid dynamics
CSTR
Continually stirred tank reactor
GRAS
Generally Recognized as Safe
LAB
Lactic Acid Bacteria
MP
Monitor Point
PDE
Partial diﬀerential equation
RMS
Root Mean Square
RPM
Rotations Per Minute
SS
Steady state
Nomenclature
A
m3
Area
C
g/L
Concentration
C′
Normalized concentration
D
m
Diameter
Dc
m2/s
Diﬀusion coeﬃcient
F
N
Force
Fo
Fourier number
f
Eﬃciency function
K
Inhibition parameter
k
m2/s2
Turbulent kinetic energy
kc
m/s
Mass transfer coeﬃcient
kpH
Proportional gain coeﬃcient
L
m
Length
N
Impeller RPM
M
g/mol
Molecular weight
P
W
Power
Po
Power number
Pk
Production term for turbulent transport equations
Q
Collective squared deviation
R
m
Radius
r
g/L/s
Reaction rate
Re
Reynold’s number
Sh
Sherwood’s number
T
K
Temperature
t
s
Time
V
m/s
Time averaged velocity
v
m/s
Velocity
X
g/L
Concentration of bacteria
Greek symbols
α
Non-growth associated production coeﬃcient
δij
Kronecker delta
ϵ
J/kg/s
Rate of viscous dissipation
θ
s
Mixing time
µ
kg/s/m
Viscosity
µt
kg/s/m
Turbulent viscosity
Continued on next page
iii
==PAGE:5==
Nomenclature – Continued from previous page
µ′
h−1
Speciﬁc growth rate of bacteria
µ′
max
h−1
Maximum speciﬁc growth rate of bacteria
ρ
g/L
Density
σ2
Logarithmic deviation
σ2
RMS
RMS deviation
σ′
pH inhibition parameter
τ
Pa
Shear stress
ω
s−1
Turbulence frequency
Subscript
0
Initial value
∞
Converged value
t
Value at time
x, y, z
Value in x,y,z-direction
iv
==PAGE:6==
CONTENTS
Contents
1
Introduction
1
1.1
Computational Fluid Dynamics . . . . . . . . . . . . . . . . . . . . . . . . . . . .
2
1.1.1
Setting up simulations in CFX
. . . . . . . . . . . . . . . . . . . . . . . .
2
1.1.1.1
Sketching & meshing
. . . . . . . . . . . . . . . . . . . . . . . .
2
1.1.1.2
Preparing the simulation
. . . . . . . . . . . . . . . . . . . . . .
2
1.1.1.3
Solving the simulation . . . . . . . . . . . . . . . . . . . . . . . .
4
1.1.1.4
Post Processing
. . . . . . . . . . . . . . . . . . . . . . . . . . .
4
1.1.2
Transport processes
. . . . . . . . . . . . . . . . . . . . . . . . . . . . . .
4
1.1.2.1
Continuity and momentum equations
. . . . . . . . . . . . . . .
5
1.1.2.2
Turbulence models . . . . . . . . . . . . . . . . . . . . . . . . . .
6
1.1.3
Kinetic modelling in CFD . . . . . . . . . . . . . . . . . . . . . . . . . . .
8
1.2
Lactic acid bacteria fermentations
. . . . . . . . . . . . . . . . . . . . . . . . . .
10
1.2.1
Fermentation processes
. . . . . . . . . . . . . . . . . . . . . . . . . . . .
10
1.2.2
Lactic acid bacteria
. . . . . . . . . . . . . . . . . . . . . . . . . . . . . .
11
1.3
Mixing Time
. . . . . . . . . . . . . . . . . . . . . . . . . . . . . . . . . . . . . .
12
2
CFD modelling of a pilot scale bioreactor
15
2.1
Sketching and meshing . . . . . . . . . . . . . . . . . . . . . . . . . . . . . . . . .
15
2.2
Mesh size study . . . . . . . . . . . . . . . . . . . . . . . . . . . . . . . . . . . . .
18
2.2.1
Impeller . . . . . . . . . . . . . . . . . . . . . . . . . . . . . . . . . . . . .
18
2.2.2
Reactor . . . . . . . . . . . . . . . . . . . . . . . . . . . . . . . . . . . . .
21
3
Validation of the ﬂuid dynamics with the mixing time
31
3.1
Experimental set-up . . . . . . . . . . . . . . . . . . . . . . . . . . . . . . . . . .
31
3.2
CFD set-up . . . . . . . . . . . . . . . . . . . . . . . . . . . . . . . . . . . . . . .
31
3.3
Results . . . . . . . . . . . . . . . . . . . . . . . . . . . . . . . . . . . . . . . . . .
32
4
pH controlled fermentation simulation using CFD
39
4.1
pH correlation
. . . . . . . . . . . . . . . . . . . . . . . . . . . . . . . . . . . . .
39
4.2
LAB kinetics
. . . . . . . . . . . . . . . . . . . . . . . . . . . . . . . . . . . . . .
41
4.3
CFD set-up . . . . . . . . . . . . . . . . . . . . . . . . . . . . . . . . . . . . . . .
42
4.4
Results . . . . . . . . . . . . . . . . . . . . . . . . . . . . . . . . . . . . . . . . . .
44
5
Discussion
50
6
Conclusion
52
6.1
Future work . . . . . . . . . . . . . . . . . . . . . . . . . . . . . . . . . . . . . . .
53
References
54
Appendices
a
A Carbonate buﬀer system
a
A.1 Reaction system
. . . . . . . . . . . . . . . . . . . . . . . . . . . . . . . . . . . .
a
A.2 CFD implementation . . . . . . . . . . . . . . . . . . . . . . . . . . . . . . . . . .
c
B Mesh iterations
k
B.1
Impeller . . . . . . . . . . . . . . . . . . . . . . . . . . . . . . . . . . . . . . . . .
k
B.2
Reactor
. . . . . . . . . . . . . . . . . . . . . . . . . . . . . . . . . . . . . . . . .
n
C Reactor illustrations
s
v
==PAGE:7==
CONTENTS
D Mesh size determination for old impeller
u
E Raw tracer data
z
F Cube fermentation results
aa
G Matlab ﬁtted fermentation
ad
vi
==PAGE:8==
LIST OF TABLES
List of Tables
1.1
Constants for the transport equations of k −ϵ [7] and k −ω [8]. . . . . . . . . . .
7
2.1
Mesh size overview. . . . . . . . . . . . . . . . . . . . . . . . . . . . . . . . . . . .
16
2.2
Pure impeller mesh domain settings for steady state. . . . . . . . . . . . . . . . .
18
2.3
Combined reactor and impeller mesh domain settings for the steady state simu-
lation. . . . . . . . . . . . . . . . . . . . . . . . . . . . . . . . . . . . . . . . . . .
22
2.4
Combined reactor and impeller mesh domain settings for a transient tracer sim-
ulation, with the remaining settings as deﬁned in Table 2.3. . . . . . . . . . . . .
27
2.5
Mixing times for 95% mixing in the tracer simulation. . . . . . . . . . . . . . . .
27
3.1
Pulses used in experiments. . . . . . . . . . . . . . . . . . . . . . . . . . . . . . .
31
3.2
Reynold’s numbers and CPU hours for the CFD domains in the tracer pulse
simulations. . . . . . . . . . . . . . . . . . . . . . . . . . . . . . . . . . . . . . . .
35
3.3
Mixing times for the experimental pulses and the CFD simulations. . . . . . . . .
35
3.4
Theoretical CFD derived power numbers and the mixing times derived from those
power numbers using Eq. (1.33). . . . . . . . . . . . . . . . . . . . . . . . . . . .
36
4.1
Parameters used in Eq. (4.6)-(4.14). . . . . . . . . . . . . . . . . . . . . . . . . .
42
4.2
Initial conditions for the fermentation simulation. . . . . . . . . . . . . . . . . . .
43
4.3
Overview of the fermentation results. . . . . . . . . . . . . . . . . . . . . . . . . .
47
vii
==PAGE:9==
LIST OF FIGURES
List of Figures
1.1
Comparison of an unstructured and structured mesh . . . . . . . . . . . . . . . .
3
1.2
Display of the velocity vectors of a laminar and turbulent ﬂow
. . . . . . . . . .
5
1.3
Concentration change of Eq. (1.25) with diﬀering time steps.
. . . . . . . . . . .
9
1.4
Types of fermentation reactors. . . . . . . . . . . . . . . . . . . . . . . . . . . . .
10
1.5
Normalized conductivity probe responses for three probes . . . . . . . . . . . . .
12
1.6
log
 σ2
RMS
 proﬁle for the probes of Figure 1.5 . . . . . . . . . . . . . . . . . . . .
13
2.1
Dimensions sketch of Chr. Hansen pilot reactor . . . . . . . . . . . . . . . . . . .
15
2.2
SolidWorks sketch of Chr. Hansen pilot reactor . . . . . . . . . . . . . . . . . . .
16
2.3
Structured mesh of the 352k node impeller. . . . . . . . . . . . . . . . . . . . . .
17
2.4
Structured mesh of the 1008k node reactor. . . . . . . . . . . . . . . . . . . . . .
17
2.5
Velocity proﬁle of the 102k (left) and 213k (right) impeller mesh at 200 rpm.
. .
19
2.6
Velocity proﬁle of the 307k (left) and 487k (right) impeller mesh at 200 rpm.
. .
20
2.7
Velocity line comparison in impeller domain . . . . . . . . . . . . . . . . . . . . .
20
2.8
Location of monitor point 1-6 that are used for all reactor measurements. . . . .
21
2.9
Velocity vectors of the 712k reactor mesh at 200 rpm.
. . . . . . . . . . . . . . .
23
2.10 Reactor SS velocity proﬁle comparison 1 of 2
. . . . . . . . . . . . . . . . . . . .
24
2.11 Reactor SS velocity proﬁle comparison 2 of 2
. . . . . . . . . . . . . . . . . . . .
24
2.12 Velocity line comparison in reactor domain
. . . . . . . . . . . . . . . . . . . . .
25
2.13 Tracer concentration at t=0 s. . . . . . . . . . . . . . . . . . . . . . . . . . . . . .
26
2.14 RMS proﬁle comparison for transient simulation at 200 rpm . . . . . . . . . . . .
28
2.15 Normalized concentration comparison between SS and transient velocity proﬁles
28
2.16 RMS proﬁle comparison between transient and SS simulations . . . . . . . . . . .
29
2.17 RMS proﬁle comparison for transient time step values at 200 rpm . . . . . . . . .
29
2.18 Mixing time plot for transient time steps at 200 rpm . . . . . . . . . . . . . . . .
30
3.1
Mixing times and RMS proﬁles for transient time steps at 132 rpm . . . . . . . .
32
3.2
Mixing times and RMS proﬁles for transient time steps at 242 rpm . . . . . . . .
32
3.3
Tracer concentration in the transient system at 132 rpm (1 of 2). . . . . . . . . .
33
3.4
Tracer concentration in the transient system at 132 rpm (2 of 2). . . . . . . . . .
33
3.5
Tracer concentration in the transient system at 242 rpm (1 of 2). . . . . . . . . .
34
3.6
Tracer concentration in the transient system at 242 rpm (2 of 2). . . . . . . . . .
34
3.7
Normalized concentration comparison of CFD and exp at 242 rpm . . . . . . . .
37
3.8
RMS proﬁle comparison of CFD and exp at 242 rpm . . . . . . . . . . . . . . . .
37
3.9
Normalized concentration comparison of CFD and exp at 132 rpm . . . . . . . .
38
3.10 RMS proﬁle comparison of CFD and exp at 132 rpm . . . . . . . . . . . . . . . .
38
4.1
NH3-lactic acid pH cancelling correlation . . . . . . . . . . . . . . . . . . . . . . .
40
4.2
pH correlation with lactic acid
. . . . . . . . . . . . . . . . . . . . . . . . . . . .
40
4.3
Full pH correlation comparison with experimental data . . . . . . . . . . . . . . .
41
4.4
Mixing times for SS velocity proﬁle as a function of impeller speed. . . . . . . . .
43
4.5
Biomass concentration comparison of Matlab, CFD and exp at 300 rpm . . . . .
44
4.6
Lactic acid concentration comparison of Matlab, CFD and exp at 300 rpm . . . .
45
4.7
Lactose concentration comparison of Matlab, CFD and exp at 300 rpm . . . . . .
45
4.8
pH comparison of Matlab, CFD and exp at 300 rpm . . . . . . . . . . . . . . . .
46
4.9
Lactic acid concentration comparison between 200 and 300 rpm . . . . . . . . . .
47
4.10 pH plot comparison of 200 and 300 rpm CFD fermentation
. . . . . . . . . . . .
47
4.11 Lactic acid plot comparison of 200 and 300 rpm CFD fermentation . . . . . . . .
48
4.12 pH monitoring points during CFD fermentation at 200 rpm . . . . . . . . . . . .
48
4.13 pH monitoring points during CFD fermentation at 300 rpm . . . . . . . . . . . .
49
4.14 pH monitoring points during exp fermentation at 132 rpm . . . . . . . . . . . . .
49
viii
==PAGE:10==
1
Introduction
Computer Fluid Dynamics (CFD) has in recent years gained more interest as a possible solution
to improve the design of not only the ﬂow proﬁles used in the aviation industry, but also the
reactor design of the chemical and biochemical industry. The ability to predict dead-spaces,
concentration gradients and reaction rates throughout a reactor is of particular interest to the
latter.
Because the ﬁrst implementation of the software that is used model concentration and rate
gradients in CFD happened in the early 2000’s [1], the technology is still young. This can lead
to unexpected computational issues when ﬂuid dynamics and reaction kinetics are combined.
Furthermore, implementing the reaction kinetics often require large computational resources
when dealing with fast reactions that are occurring over long periods of time or in large volumes.
This project aims to predict pH gradients, which occur in lactic acid bacteria (LAB) fermen-
tations, in a pilot scale bioreactor of Chr. Hansen. To this end, a kinetic CFD model of the
reactor was created. The ﬂuid proﬁle will be investigated and compared with experimental mix-
ing data, before an LAB kinetic model and a pH correlation will be implemented and compared
with experimental fermentation data.
This section will provide an introduction to the subjects that are covered in this project. The
covered subjects include a brief overview of the relevant CFX functions and how the turbulence
and kinetic models operate (Section 1.1), an overview of LAB fermentation principles (Section
1.2) and the methods and models used to calculate and predict mixing times (Section 1.3).
1
==PAGE:11==
1.1
Computational Fluid Dynamics
1.1
Computational Fluid Dynamics
This section explains the process of setting up ﬂuid dynamic investigations in ANSYS CFX 17.1
and some of the fundamental models that are involved in solving the ﬂuid dynamics.
1.1.1
Setting up simulations in CFX
To set up a simulation in CFX, there are ﬁve main steps that must be completed. Firstly, a
3-D model of the volume that one wishes to investigate is crafted. A mesh is then created on
the framework of this model, which is then exported to CFX. In CFX, the imported mesh’s
boundary conditions, models and simulation parameters are set up in CFX-Pre, before being
formatted to a Solver deﬁnition ﬁle. The CFX-Solver solves the deﬁned simulation and generates
a result ﬁle that can be investigated in CFX-Post. These steps will each be further explained
below.
1.1.1.1
Sketching & meshing
When sketching the desired geometry as a 3-D model, it is the non-solid parts that are given
volume. This is because the mesh requires a bounded volume to be crafted. Solid parts are only
given a volume when the heat transfer across the solid is of interest. SolidWorks is a commonly
used tool to create such 3-D models, but simple geometrical models can also be constructed in
ANSYS ICEM. In the next step, the volume is divided into a mesh of small subvolumes that
are used in the simulation process.
The mesh consists of two parts; nodes and elements. Elements are 3-dimensional blocks that
ﬁll out the inner body of the geometry. Nodes connect the corners of neighbouring elements
and are used in the simulation as the geometric reference points. Meshes are categorized as
either unstructured or structured meshes. Unstructured meshes are generated automatically
by ICEM using either tetrahedral or hexahedral-dominated elements. Structured meshes are
crafted by the user using only heaxahedral elements. The main advantage of using an unstruc-
tured mesh is the quick and easy mesh creation, but the use of tetrahedral elements often leads
to a jagged simulation result. In contrast, manually crafting a structured mesh requires more
time and eﬀort, but the process also allows the user far more freedom to ﬁt the mesh to the
needs of the simulation. The ability to ﬁt the mesh, and the use of hexahedral elements, often
leads to a lower computational time and required node density for the structured mesh than the
unstructured mesh. Figure 1.1 displays the diﬀerence between a structured and unstructured
mesh.
1.1.1.2
Preparing the simulation
With a generated mesh, the second step is to set up the simulation. Therefore, the mesh is
imported into the program ANSYS CFX-Pre. This software is used to deﬁne the simulation in
detail, e.i. what models are used, what the boundary conditions are, how it should be solved
and what should be recorded in the results. Upon completion, a deﬁnition ﬁle will be generated
that is used to solve the deﬁned problem.
The models that are used in the simulation contains sets of partial diﬀerential equations (PDE)
each model diﬀerent phenomena. Restricting the selected models to the phenomena of relevance
to the simulation is paramount to both increase accuracy and decrease computational time. The
turbulence and laminar models are of particular interest when modelling ﬂuid behaviour. The
mechanics behind them and when one should be used over others are presented in Section 1.1.2.
Boundary conditions are set for each surface of the mesh to describe what happens at the
surface. Common boundary conditions include the inlet, outlet, opening, wall, symmetry and
2
==PAGE:12==
1.1
Computational Fluid Dynamics
Figure 1.1: Unstructured tetrahedral elements (left) and structured hexahedral elements (right)
with an equal number of nodes.
periodicity. Inlets, outlets and openings allow material to enter and leave the system, and the
conditions outside the system must therefore be deﬁned for each boundary condition. Walls
describe the ﬂuids interaction with an impermeable wall, i.e. the wall slip. No slip walls allow
no ﬂuid movement at the wall, and free slip walls allow unhindered ﬂuid movement at the wall.
Symmetry and periodicity are both used to decrease the computational time by limiting the
simulation volume to a fraction of the whole geometry. Symmetry can only be used when the
boundary plane mirrors both sides. Rotational periodicity allows for circular movement from
one boundary to the other, and can only be used in cases of circular periodicity.
Transient simulations are used when the interest is on what happens over time, and steady
state (SS) simulations are used when the interest is on what happens at t∞. For both, an
appropriate time step is chosen to reﬂect the changes in the simulation. The transient time step
provides the points in time that the PDE’s are solved for. The SS time step is a pseudo time
step that allows the solver to compare the conditions before and after the time step. The Root
Mean Square (RMS) of the residuals is used for to compare the diﬀerence between simulation
iterations for both the SS time steps and for the calculation of each time step in a transient
simulation. The highest allowed RMS value is a solving parameter that is set to reﬂect the
allowed margin of error. A maximum number of iterations is set to control the computational
time that the solver spends attempting to ﬁnd a solution.
As a ﬁnal step before the simulation is started, it is deﬁned what information is relevant to
save during the simulation in order to decrease to storage demand. Because of this, the data of
simulation result ﬁles can be decreased, transient result ﬁles can be limited in both frequency
and scope, and monitoring points can be set up in the simulation to monitor speciﬁc parameters
at speciﬁc locations throughout the simulation’s run. Monitor points are of particular interest
due to their ability to compare directly with experimental data recorded at the same locations,
as well as provide the user with an overview of what has occurred so far in the simulation run.
3
==PAGE:13==
1.1
Computational Fluid Dynamics
1.1.1.3
Solving the simulation
With the deﬁnition ﬁle, which contain the simulation set-up, the simulation is then solved in
CFX-Solver. A ﬁle with initial conditions can be inserted to provide a starting point, and the
problem can be partitioned to allow for a greater usage of multiple CPU cores.
Once initialized, the monitoring points, RMS values and simulation progress can be monitored.
If necessary, the simulation can be stopped at any given point. Backup ﬁles and adjustments
can also be made during the run. At the end of the simulations, a result ﬁle is created with the
speciﬁed result data.
For this project, all heavy simulations were done in a HPC cluster on DTU’s Gbar network.
1.1.1.4
Post Processing
Once the simulation has converged in the Solver, the result ﬁle can be measured and visualized
in CFD-Post. This includes measuring any recorded simulation values at any given point or
line, or introducing one or more planes to view the visual proﬁle of a parameter. For steady
state results, it is often easier to get an overview of the entire system in Post than through the
monitoring points inserted in the Solver.
1.1.2
Transport processes
The motion of liquids and gasses has been studied extensively throughout history in the ﬁeld
known as transport processes. Understanding these motion dynamics are important in order to
improve the eﬃciency of reactor and/or aviation designs. Due to their similar motion dynamics,
gasses and liquids have often been modelled collectively under the ﬂuid name.
A number of distinctions have been made between diﬀerent ﬂuids.
The most important of
these distinctions is the diﬀerence in viscosity, where ﬂuids are divided into two groups; New-
tonian and non-Newtonian ﬂuids. The Newtonian ﬂuids have a constant viscosity regardless of
the scale of the strain forces that are acting on the ﬂuid. The non-Newtonian ﬂuids do not. Due
to this, Newtonian ﬂuids can be modelled simply with the help of the Shear Stress equation, as
seen in Eq. (1.1).[2]
τ = F
A = µ v
Y
(1.1)
For a two-plate experiment, F is the force required to maintain motion over the area A of a
ﬂuid with constant viscosity µ. The two plates are separated by the distance Y , and are moving
at a constant velocity v. Non-Newtonian ﬂuids have been found to require a molecular weight
of above 5000 g/mol, and they include famous examples such as starch suspended in water,
ketchup and other slurries. For this project, only Newtonian ﬂuids, such as water and air, will
be considered.
The second major distinction to make when modelling ﬂuids is whether the ﬂuid is incom-
pressible or not. The density of compressible ﬂuids, such as air, changes with pressure, while
incompressible ﬂuids, such as water, do not. Since this project will only deal with an isothermal
liquid phase, incompressibility can be assumed. [2]
The third major distinction that has to be made, is whether the ﬂuid is in the laminar ﬂow
or turbulent ﬂow regime. A laminar ﬂow is ordered, so that the velocity vectors in the ﬂuid
along a smooth surface will be parallel to each other. Opposingly, a turbulent ﬂow will ﬂuctuate
chaotically in small rotational vortexes called eddies. This diﬀerence causes the laminar velocity
proﬁle in a tube to be modelled as a parabolic shape (Eq. (1.2)), while the turbulent ﬂow is
4
==PAGE:14==
1.1
Computational Fluid Dynamics
more blunt and has a sharper drop in velocity near the edges [3]. This can be seen in Figure
1.2. Due to the chaotic nature of the turbulent ﬂow, mass transfer and mixing happens faster
than in the laminar ﬂow, where the diﬀusivity is the dominant force for mass transfer. This
correlation is also described by the Sherwood number Sh (Eq. (1.3)), which compares the mass
transfer coeﬃcient kc across a diameter D with the diﬀusion coeﬃcient Dc. [2]
vz
vz,max
= 1 −
 r
R
2
(1.2)
Sh = kcD
Dc
(1.3)
Figure 1.2: Display of the velocity vectors of a laminar and turbulent ﬂow. Reprinted from
"Kemiske enhedsoperationer", p. 54 [3]
To determine when a ﬂuid ﬂow is turbulent or laminar, the Reyonold’s number Re (Eq. (1.4))
is used. ρ is the density and L is a characteristic linear length. For a pipe, this would be the
inner diameter. A tube ﬂow is usually considered fully laminar when 1 ≤Re ≤2000 and fully
turbulent at Re ≥3000 Re. In the border interval between 2000 and 3000, the ﬂow will be
a mixture of laminar and turbulent ﬂow. For a stirred tank reactor, the impeller Reynold’s
number is used, as given by Eq. (1.5), with the D being the diameter of the impeller and the
N being the rpm. [3]
Re = ρvL
µ
(1.4)
Re = ρND2
µ
(1.5)
1.1.2.1
Continuity and momentum equations
The equation of continuity (Eq. (1.6)) and the equation of motion are the fundamental equa-
tions, which are modelling ﬂuid ﬂows. The equation of continuity was derived from the mass
balance. It describes the rate of mass change in a ﬁxed volume as the rate of mass going in minus
the rate of mass going out. Eq. (1.7) is the continuity equation for incompressible ﬂuids.[2]
∂ρ
∂t = −(∇· ρV)
(1.6)
∇· V = ∂Vx
∂x + ∂Vy
∂y + ∂Vz
∂z = 0
(1.7)
The equation of motion describes the momentum balance in a ﬁxed volume. It relates the in-
and out-going momentum rates with the external forces that are exerted on the ﬂuid volume.
Eq. (1.8) describes the Navier-Stokes’ equation for the equation of motion of an incompressible
Newtonian ﬂuid. SM symbolizes the external forces per volume, but in most cases, the only
external force considered is that of gravity (ρg).[2]
ρDV
Dt = ρ
∂V
∂t + (V · ∇) V

= −∇p + µ∇2V + SM
(1.8)
5
==PAGE:15==
1.1
Computational Fluid Dynamics
1.1.2.2
Turbulence models
As mentioned earlier, a turbulent ﬂow is chaotic and therefore transient by nature. To model
the full eﬀects of the swirling eddies from Figure 1.2, an extremely ﬁne mesh would need to
be used in a transient simulation with very small time steps.
To avoid this, the Reynold’s
Averaged Navier-Stokes(RANS) equations were ﬁrst proposed by Osborne Reynolds in 1895 [4],
and they have since become the primary tool for CFD simulations involving turbulent ﬂows.
The RANS models assume that though the turbulent ﬂow is transient by nature, the time
averaged behaviour in a direction can be predicted as time independent. The relation between
the time averaged ﬂow in the x-direction Vx can be related to the time dependent Vx and the
time ﬂuctuating divergence vx through Eq. (1.9).[4]
Vx = Vx + vx
(1.9)
Inserting Eq. (1.9) into the continuity equation shown in Eq. (1.7) and performing a time
averaging gives Eq. (1.10). This is due to the divergence v becoming zero when summed over
the period of time.[4]
∇· V = ∂Vx
∂x + ∂Vy
∂y + ∂Vz
∂z = 0
(1.10)
Similarly, Eq. (1.9) is inserted in Navier-Stokes momentum equation from Eq. (1.8). For ease
of use, this is only shown for the x components in Eq. (1.11). The ρvivj terms are the Reynolds
stresses. These are the time averaged ﬂuctuating velocity components from Eq. (1.9) timed
with the density.[4]
ρDVx
Dt = −∂p
∂x + µ
 
∂2Vx
∂x∂x
∂2Vx
∂y∂y
∂2Vx
∂z∂z
!
+ Sx −ρ
∂vxvx
∂x
+ ∂vxvy
∂y
+ ∂vxvz
∂z

(1.11)
Due to not being able to derive the Reynolds stresses directly from the ﬂow, they must be
calculated otherwise. For CFD purposes, the most common way to model them is through the
eddy viscosity turbulence models, of which only the k−ϵ, k−ω and SST models will be covered.
Common for all three models is that they are two equation turbulence models, meaning that
they use two equations to describe the Reynolds stresses. They do this through the Boussinesq
eddy viscosity model, which correlates the Reynolds stresses to the rate of deformation for a
ﬂuid. The incompressible equation for this is seen in Eq. (1.12). It should be noted that δij is
the Kronecker delta, and it is by deﬁned as one when i = j and zero for i ̸= j. k is the turbulent
kinetic energy and µt is the turbulent viscosity. [5; 6]
−ρvyvj = µt
 
∂Vi
∂xj
+ ∂Vj
∂xi
!
−2
3δijρk
(1.12)
By inserting Eq. (1.12) into Eq. (1.11), Eq. (1.13) can be derived. It can be noted that unlike
the three Reynolds stresses of Eq. (1.11), only two variables, k and µt, need to be modelled.
ρDVx
Dt = −∇p −2
3ρ∇k + ∇· (µ + µt) ∇V + SM
(1.13)
k is deﬁned as Eq. (1.14). This leaves only the µt to be modelled, and it is here that the
turbulence models of k −ϵ and k −ω diverge. k −ϵ seeks to model µt through the rate of the
viscous dissipation ϵ, while k −ω seeks to model µt through the turbulence frequency ω. It
should be noted that there is a correlation between ϵ, ω and k, seen in Eq. (1.15), which makes
it so that if two are known, the third can be calculated. [6]
k ≡1
2v2
i
(1.14)
6
==PAGE:16==
1.1
Computational Fluid Dynamics
ω = ϵ
k
(1.15)
ϵ is better described as the rate of turbulent energy that is absorbed by the bulk ﬂuid from the
small eddies shown in Figure 1.2. This has been deﬁned as Eq. (1.16), which correlates to µt
through Eq. (1.17), and thereby forms the basis for the k −ϵ model. It should be noted that
the k −ϵ model requires a fully turbulent ﬂow. In regions with low local Reynolds numbers,
such as near walls, the viscous forces are stronger than the turbulent forces. For these regions,
wall functions are often used.[7]
ϵ = ρ
µ
∂vi
∂xj
∂vi
∂xj
(1.16)
µt = 0.09ρk2
ϵ
(1.17)
At high Reynolds numbers, the transport equation for the k −ϵ model can therefore be written
as Eq. (1.18) and (1.19). The constants can be found in Table 1.1. Pk is the production term,
and is deﬁned in Eq. (1.20).[7; 5]
∂ρϵ
∂t + ∇· (ρϵV) = ∇·

µ + µt
σϵ

∇ϵ

+ C1
Pkϵ
k
−C2
ρϵ2
k
(1.18)
∂ρk
∂t + ∇· (ρkV) = ∇·

µ + µt
σk

∇k

+ Pk −ρϵ
(1.19)
Pk = 1
2µt
 
∂Vi
∂xj
+ ∂Vj
∂xi
!2
(1.20)
Table 1.1: Constants for the transport equations of k −ϵ [7] and k −ω [8].
k −ϵ
C1
C2
σϵ
σk
1.44
1.92
1.3
1.0
k −ω
γ
β
β∗
σ
σ∗
5/9
3/40
9/100
1/2
1/2
The Wilcox k −ω model is similar to the k −ϵ model in that it also uses Eq. (1.17) to calculate
µt. Instead of the relationship between ω and ϵ shown in Eq. (1.15), it uses Eq. (1.21), where
β∗= 9/100. This leads to Eq. (1.22).[8]
ω =
ϵ
β∗k
(1.21)
µt = ρ k
ω
(1.22)
The transport equation for the Wilcox k −ω model can therefore be written as Eq. (1.23)
and (1.24). The constants can be found in Table 1.1, with Pk being deﬁned as in the k −ϵ
model.[8; 5]
∂ρω
∂t + ∇· (ρωV) = ∇· ((µ + σµt) ∇ω) + γ Pkω
k
−β ρω2
k
(1.23)
∂ρk
∂t + ∇· (ρkV) = ∇· ((µ + σ∗µt) ∇k) + Pk −β∗ρkω
(1.24)
7
==PAGE:17==
1.1
Computational Fluid Dynamics
The Wilcox k −ω model is better than the k −ϵ model at predicting the turbulent ﬂow near
walls, especially curved walls with adverse pressure gradients, but it is often less stable than
the k −ϵ model when further from the walls. As such the Shear Stress Transport (SST) model
is often used as a combination of the k −ϵ and k −ω models. It was designed to behave as
the k −ω model close to walls, while behaving as the k −ϵ model further from walls in the free
stream. The SST model is however still not as stable as the k −ϵ model, and like in the ANSYS
CFX 17.1 k −ω model, it contains a limiter on Pk that stops Pk from becoming too large. The
k −ϵ model does not contain this limiter. This makes the SST model prone to fall back towards
a k −ω proﬁle.[6; 5]
1.1.3
Kinetic modelling in CFD
The ability to combine the ﬂuid dynamics of a CFD simulation with reaction kinetics allows for
concentration gradients to be observed in reactors. This is of great interest to anyone wishing to
improve upon reactor design. In CFD, the kinetic and mass conservation equations are separate
but connected to the momentum and mass conservation equations that are used to calculate
the ﬂuid ﬂow. [9]
This separation allows for a reduction in computational time and the possibility of reﬁning
the mesh in diﬀerent areas than would be relevant for the ﬂuid dynamics. If a stable steady
state velocity proﬁle can be reached, it furthermore allows for the complete absence of the ﬂuid
dynamic models during the kinetic simulation, thereby signiﬁcantly reducing the computational
requirements. [9]
There are two primary ways of including species in CFX; Additional variables and Materi-
als.
Additional variables works by inserting the specie atop the ﬂuid material.
As such, a
liquid’s incompressibility in a closed space does not need to be upheld. For a one-phase liquid
system with no openings, this allows the user to introduce matter into the system without
exerting immense pressure on it. Similarly, matter can be removed from the system without
further considerations needed. When using Materials, the user speciﬁes the mass fraction com-
position of the ﬂuid, which means that the mass balance must always be upheld. Despite this,
the Material approach does have the advantages of allowing the ﬂuid properties to change over
time and diﬀer across the mesh. It also allows the user to take advantage of the in-built Reac-
tions mechanic to model kinetic reactions. The Reactions mechanic functions by deﬁning the
reactants and products of any reaction from the Materials list, along with their stoichiometric
coeﬃcients and reaction order. The reaction rate is then deﬁned using either the Arrhenius
equation template or a user-deﬁned expression for both the forward and backwards reaction
rate. If a reaction does not conserve matter, a warning to the user will be issued. In contrast,
the Additional variables approach uses a subdomain to allow kinetics to occur as a source of
that speciﬁc specie, independent of what happens to other specie. The subdomain approach
has the advantage that it is more ﬂexible, easy to use and allows for the reaction to only take
place in certain domains, while the Materials approach often performs better for stiﬀsystems
and allows for the CFX beta stiﬀsolver function to work.
As with the ﬂuid dynamics, it is important to consider the time step in concert with the
reaction kinetics. A too large time step will distort the results, but a too small time step will
increase the computational time considerably. For an example of this, Eq. (1.25) represents
a simple reaction, and Figure 1.3 shows the results gained from utilizing diﬀerent time steps.
As can be noted, the 0.1 s and 0.2 s time step results are close enough to each other that one
could use the 0.2 s time step and half the computational time without major change to the ﬁnal
results.
8
==PAGE:18==
1.1
Computational Fluid Dynamics
dC′
dt = −C′
(1.25)
0
0.1
0.2
0.3
0.4
0.5
0.6
0.7
0.8
0.9
1
0
0.5
1
1.5
2
2.5
3
3.5
4
4.5
5
C'
Time [s]
0.1s
0.2s
0.5s
0.75s
1s
Figure 1.3: Concentration change of Eq. (1.25) with diﬀering time steps.
While Figure 1.3 represents the solutions for an ideal one-compartment system, the choice of
time step also depends upon the size, complexity and quality of the mesh. A simple structured
mesh of a small cube will often not require the same time step as a large structure with com-
plicated shapes and questionable mesh quality to achieve the same result.
Similar to the ﬂuid dynamics, the mesh quality and node density has signiﬁcant eﬀects on
the accuracy and computational requirements of the kinetic modelling. Early segregated ki-
netic and ﬂuid dynamics models used zones to ease the computational requirements. These
zones assumed that each zone was a well-mixed space. After each zone was solved, the results
were adjusted according to an overall analysis of the entire volume’s conditions. This led to a
factor ten reduction in computational time compared to earlier non-segregated zone models. [10]
However, with the exponential increase in computing power over time described by Moore’s
law, it has become possible to model the kinetics in each cell of the CFD simulation, rather
than as overlying zones. Kong et al [1] proposed such a model to the CHEMKIN chemistry
solver. This has allowed CFD simulations to produce concentration gradients. In spite of the
pH’s heavy impact on a fermentation, it is only rarely simulated directly [11]. The reason for
this is the water dissociation’s fast reaction speeds; usually reaching a steady state within 1e-5
s [12]. Instead, the pH has previously been indirectly modelled by Wu, B. [13] using the ionic
charge balance to calculate what the pH ought to be given the concentration and reaction rates
of the reactants and products. [14]
9
==PAGE:19==
1.2
Lactic acid bacteria fermentations
1.2
Lactic acid bacteria fermentations
For millennia, humanity has utilized the fermentation process to produce food and drinking
products such as alcohol, cheese and yoghurt. This is done by cultivating cells in a medium to
produce the desired product and increase the cell concentration.[15]
In this section, the principles involved in modern fermentation reactors, and the biological
process producing lactic acid from lactose, will be presented.
1.2.1
Fermentation processes
In fermentation, there are three primary operating modes available; batch, fed-batch and con-
tinuous. The batch reactor is a quasi-closed system. It is regulated by time and temperature,
with no broth medium entering or leaving the system. However, in the fermentation perspective,
a pH-controlled fermentation or an aerated system is also considered as a batch fermentation.
A continuous fermentation usually resembles a continually stirred tank reactor (CSTR) reac-
tor, where feed and products continuously ﬂow through the fermentation tank. Fed-batch lies
between these two, and it allows a feed stream to enter the system, but not products to ﬂow
out. The three approaches are illustrated in Figure 1.4.[11]
Figure 1.4: Types of fermentation reactors.
Common for nearly all fermentation reactors is that they are continuously stirred to achieve
homogeneity. This is done both to suppress local concentration and temperature pockets that
might lead the cells to perform undesirably, and to allow for a quicker corrective action of the
entire fermentation broth than would have been possible with pure diﬀusion.
10
==PAGE:20==
1.2
Lactic acid bacteria fermentations
1.2.2
Lactic acid bacteria
The lactic acid bacteria (LAB) has been used for centuries to ferment dairy products by con-
suming lactose. Due to their extensive use in history, the 12 genera of LAB commonly used
in food production tend to be GRAS (Generally Recognized as Safe). The bacteria tend to
prefer more acidic environment and are mostly mesophiles. LAB are further categorized as
being either homofermentative or heterofermentative. Homefermentative LAB has around 95%
lactic acid end product, whereas heterofermentative also produce acetic acid, ethanol and CO2
as end products.[15]
The L. bulgaricus and S. thermophilus bacteria primarily produce lactic acid from lactose,
making them homofermentative, and they are used in the production of yoghurt. The lactose is
ﬁrst converted to glucose and galactose using the β-galactosidase enzyme. They are then con-
verted to pyruvate and ATP through the glycotic pathway, with pyruvate later being converted
to lactic acid.[16]
The optimal temperature ranges for certain strains of S. themophilus and L. bulgaricus are
35-46◦C and 42-50◦C respectively, while the optimum pH is around 5.6. However, strains can
vary from this [17]. As shown by Rault et al [18], a high pH value can lead the lactic acid dis-
sociation to favour lactate, which can degrade the LAB’s membrane integrity and thereby the
bacteria’s viability. Furthermore, Cook and Russell [19] showed that a high acidity led certain
LAB to stop growing entirely.
11
==PAGE:21==
1.3
Mixing Time
1.3
Mixing Time
Determining the time required for a container of multiple specie to reach homogeneity is of
utmost importance to dynamic systems, such as fermentations in bioreactors. Fermentation
tanks require homogeneity of substrates, oxygen, pH, etc. to avoid undesired growth or product
decrease. As noted in Section 1.2.2, a signiﬁcantly acidic region could limit LAB growth, while
a signiﬁcantly basic region could lead to increased cell degradation. Cortes et al [20] further-
more showed that E. coli expressed diﬀerent gene responses when exposed to pH gradients in
an STR than when exposed to a constant pH. In cases of large substrate gradients, feast or
famine situations would occur, which has been known to cause metabolic changes in cells [21].
To limit such gradients, a reliable measurement technique is needed to compare mixing times
between diﬀerent reactor designs and impeller speeds.
Tracer experiments are typically performed by adding a small amount of tracer to an operating
reactor and then measure the tracer concentration over time. Since the real measurement values
are often hard to compare, Eq. (1.26) is used to normalize measurements, so that they can be
compared between independent tracer experiments with diﬀering tracer compounds. It works
by taking the concentration at any given point in time (Ct), subtracting the initial concentration
and then dividing them by the total change in concentration between the initial concentration
and the ﬁnal converged concentration. It should be noted that though concentration is used as
an example, any measured change, such as conductivity, can be used.[22]
C′
t = Ct −C0
C∞−C0
(1.26)
While Eq. (1.26) is useful for determining how close the measurements is to the ﬁnal value, it
is often diﬃcult to use in practise due to ﬂuctuations in the measurement instruments and the
long tail near 100% homogeneity. As such, judging when a measurement has reached a ﬁnal
95% homogeneity can be diﬃcult. This is exempliﬁed in Figure 1.5.[22]
Figure 1.5: Normalized conductivity probe responses for three probes. Reprinted from "Hand-
book of Industrial Mixing", p. 173 [22]
Due to this and that the measurement ﬂuctuations decay exponentially, Eq. (1.27) is used to
more easily obtain a mixing time based on the logarithmic squared deviation σ.[22]
log

σ2
= log
 C′
t −1
2
(1.27)
Due to the turbulent nature of most tanks, the placement of a single measurement device can
often have a great impact on the measurements made, and therefore the mixing time. To combat
12
==PAGE:22==
1.3
Mixing Time
this, several measurements are often made at diﬀerent places in a reactor. Eq. (1.28) is used to
ﬁnd the Residual Mean Squared deviation σ2
RMS. While Eq. (1.28) uses an equal weighting for
each measurement point, weighting can be distributed unevenly across the measurement points
if needed. Figure 1.6 shows this process for the probes also shown in Figure 1.5. It can be noted
that it is signiﬁcantly easier to determine when log
 σ2
RMS
 = log
 (0.95 −1)2 = 2.6.[22]
log

σ2
RMS

= log
 
1
n
n
X
i=1

C′
t,i −1
2
!
(1.28)
Figure 1.6: log
 σ2
RMS
 proﬁle for the probes of Figure 1.5. Reprinted from "Handbook of Indus-
trial Mixing", p. 174 [22]
Another beneﬁt of using the logarithmic squared deviation is that it is possible to estimate other
mixing degrees from the mixing time of one degree of homogeneity. Eq. (1.29) describes this
correlation between the mixing times (θ) of diﬀerent degrees of homogeneity. An example of this
states that it, as a general rule of thumb, takes 1.54 times longer to reach a 99% homogeneity
than 95%. This can be seen in Figure 1.6 to be fairly accurate(log
 (1 −0.99)2 = 4). Another
measure that is occasionally used, is the dimensionless mixing time Nθ, which combines the
number of impeller revolutions per second (N) with the mixing time to give the number of
revolutions needed to achieve the homogeneity desired.[22]
θn
θm
= ln (1 −n)
ln (1 −m)
(1.29)
The mixing time has been correlated extensively in literature. Eq. (1.30) has been correlated
for the turbulent regime to be true within a 10% standard deviation. Po is the power number
that relates the power consumed (P) to perform hydraulic work with an impeller of diameter
(DI), as seen in Eq. (1.31), and Fo is the Fourier number, as seen in Eq. (1.32). DT and
HT are the diameter and height of the tank. It should be noted that for Rushton ﬂat-blade
impellers at Re ≫104, the Po can be considered mostly constant. [22]
Po
1
3 Re = 5.20
Fo
(1.30)
P = Po · ρ · N3 · D5
I
(1.31)
Fo =
µ · θ95%
ρ · D1.5
T
· H0.5
T
(1.32)
13
==PAGE:23==
1.3
Mixing Time
Inserting Eq. (1.32) and the impeller Re, given in Eq. (1.5), into Eq. (1.30) gives Eq. (1.33).
N · θ95% · Po
1
3
D2
I
D1.5
T
· H0.5
T
= 5.20
(1.33)
14
==PAGE:24==
2
CFD modelling of a pilot scale bioreactor
This section will describe how the CFD model that was used to simulate the fermentation re-
actor, was derived and set up. It will cover the creation of a geometry model in SolidWorks,
the creation of a structured mesh and a mesh size study of the selected mesh.
The pilot scale fermentation reactor that is used by Chr. Hansen, has a volume of approx-
imately 1 m3. A sketch of the reactor can be seen in Figure 2.1. The cylindrical reactor has
4 baﬄes, 3 6-blade Rushton turbine impellers, a shaft that extends through the bottom and
roughly 30 cm of air at the top. There is also a pipe supplying gas to the bottom sparger and
a support structure to hold the shaft in place at the top of the shaft.
Figure 2.1: Sketch and dimensions of the pilot scale reactor (left) and 6-blade Rushton impellers
(right).
2.1
Sketching and meshing
Based on simulations performed by Han, P. in his Msc. thesis [23], it was deemed possible
to simplify the structure by removing the gas supply pipe, sparger and support structure of
the shaft. With these simpliﬁcations, the structure becomes symmetrical when looked at from
above. This allowed for a rotational periodicity to be implemented, thereby halving the volume
that would need to be meshed.
To ease the meshing, the impeller domains were cut out of the reactor domain in 3 sepa-
rate but equal pieces, so that only a single impeller would need to be meshed. The other two
15
==PAGE:25==
2.1
Sketching and meshing
were copies of the ﬁrst one. Figure 2.2 shows the sketches made in SolidWorks.
Figure 2.2: SolidWorks sketch of the Chr. Hansen reactor (left) and impeller (right) sketch.
Several iterations of the structured meshes were made. Descriptions of them, changes between
iterations and why each iteration was rejected can be found in Appendix B. The ﬁnal mesh
iterations can be seen in Figure 2.3 & 2.4. The diﬀerent colours of the symmetry plane mark
the two periodical symmetry planes that were coupled together in CFX-Pre. 4 impeller meshes
and 3 reactor meshes were produced by using the Scale Sizes Factor to uniformly decrease or
increase the element sizes throughout the mesh domains. This was followed by minor manual
adjustments to keep the consistency throughout. The sizes of the resulting meshed are listed in
Table 2.1.
Table 2.1: Mesh size overview.
Mesh
Total number of nodes
Fluid volume (m3)
Nodes per m3
Reactor
475k
712k
1,008k
-
3.42e-1
1.39M
2.09M
2.96M
-
Impeller
102k
213k
307k
487k
3.24e-3
31.5M
65.7M
94.7M
150.3M
16
==PAGE:26==
2.1
Sketching and meshing
Figure 2.3: Structured mesh of the 352k node impeller.
Figure 2.4: Structured mesh of the 1008k node reactor.
17
==PAGE:27==
2.2
Mesh size study
2.2
Mesh size study
With the base meshes ready, the minimum size of the elements necessary to portray the system
had to be found. This was done to ease the computational requirements. To accomplish this, the
elements’ relative sizes were uniformly altered until the simulated velocity and mixing proﬁles
no longer diﬀered signiﬁcantly from a mesh with a much higher number of nodes. For the steady
state velocity proﬁles, the impeller meshes were tested separately from the reactor meshes in
Section 2.2.1 to avoid checking every combination of the impeller and reactor meshes. The mesh
size study for the reactor part was then performed in Section 2.2.2 with the chosen impeller
mesh.
2.2.1
Impeller
In the mesh size study of the impeller domain, the impeller domain was given openings at the
top and bottom and Free Slip Walls at the round sides. The Free Slip Wall at the sides was done
because it was found that simply having openings at the sides generated too many numerical
errors in the ﬁnest mesh. For the combined reactor mesh, these would all become interfaces.
Tests with the ﬁnest mesh in a simple tank showed that these numerical errors did not appear
if there was a movable liquid domain outside the interface. The setup conditions can be found
in Table 2.2. An RMS of 1e-5 was chosen to allow the simulation to continue running until the
convergence of 3 monitor points that were measuring the Velocity in Stn Frame. This would
signal steady state in conjunction with a RMS value near or below 1e-4.
Table 2.2: Pure impeller mesh domain settings for steady state.
Setting
Value
Analysis type
Steady State
Impeller Domain
Material: Water
Domain motion: Rotating
Buoyancy model: Non Buoyant
Angular velocity: 200 rev min−1
Rotation axis: Global Y
Turbulence option: k-Epsilon
Heat Transfer: None
Boundary condition(s)
Impeller top: opening
Impeller sides: Free Slip Wall
Impeller bottom: opening
Impeller surface: No Slip Wall
Interface(s)
Rotational Periodicity around the Y-axis
between symmetry side 1 and 2
Solver Control
Advection Scheme: High Resolution
Turbulence Numerics: First Order
Timescale Control: Auto Timescale
Auto Timescale Factor: 1.0
Residual Type: RMS
Residual Target: 1e-5
Upon reaching steady state, the velocity proﬁles displayed in Figure 2.5 and 2.6 were found.
By measuring the velocity along a line going through the center of the forward impeller it is
possible to determine the better mesh to use. The line that was used can be seen in Figure C1
of Appendix C and the proﬁle can be seen in Figure 2.7. From looking at the velocity proﬁles of
102k-487k, it was immediately clear that too much changes between 102k and 487k to pick the
18
==PAGE:28==
2.2
Mesh size study
102k mesh. The diﬀerence between the 213k and 487k was still noticeable near the centre of the
high velocity arms, though not by as much as the 102k mesh. Not much changed between 307k
and 487k, which was also reﬂected in Figure 2.7, where the 307k and 487k mesh velocity lines
were considerably more similar than the 487k and 102k or 213k lines. The diﬀerence between
the 487k line and 213k line was roughly twice that of the 487k and 307k diﬀerence. Due the
limited changes that occurred between the 487k and 307k meshes, and the signiﬁcantly longer
computational time that using the 487k mesh would demand, it was considered reasonable to
choose the 307k mesh. The 307k mesh was picked over the 213k mesh, as the loss in accuracy
that picking the 213k mesh would bring was considered large enough to be worth the extra
computational time of the 307k mesh.
The 307k impeller mesh was therefore chosen to be used in all future reactor simulations.
Figure 2.5: Velocity proﬁle of the 102k (left) and 213k (right) impeller mesh at 200 rpm.
19
==PAGE:29==
2.2
Mesh size study
Figure 2.6: Velocity proﬁle of the 307k (left) and 487k (right) impeller mesh at 200 rpm.
0
0.5
1
1.5
2
2.5
3
3.5
4
4.5
5
0
20
40
60
80
100
120
140
160
180
200
Velocity in Stn Frame [m s-1] 
Measurement
102k
213k
307k
487k
Figure 2.7: Velocity proﬁle comparison for a line (Figure C1) going through the impeller domain
that is operating at 200 rpm.
20
==PAGE:30==
2.2
Mesh size study
2.2.2
Reactor
The mesh size study for the reactor part was performed with the impeller mesh found in Section
2.2.1 integrated into the the reactor in CFX-Pre. Unlike the previous comparison, both steady
state velocity proﬁles and a transient tracer test were performed to compare their performances.
The impeller was inserted thrice and the Transform Mesh function was used to elevate each
to its required position. The impeller domains were set up as in Table 2.2, except that the
openings and sides became interfaces. The reactor domain top was put as a Free Slip Wall, so
as to simulate that air was above and keep the ﬂuid inside the reactor, but without having to
simulate two phases. A k −ϵ turbulence model was chosen over an SST model due to its ro-
bustness when dealing with ﬂuids that are not near the walls. The standard steady state set-up
has been summarized in Table 2.3. As with the impeller, monitor points were used to check for
convergence in combination with the RMS values. The location of these monitor points can be
seen in Figure 2.8.
Figure 2.8: Location of monitor point 1-6 that are used for all reactor measurements.
While it was possible to achieve RMS simulation values below 1e-4 for the velocity components,
the monitor points kept oscillating without any indication of lessening. Further experimentation
showed that this was due to the system being heavily transient in nature, and therefore unable
to converge on a single velocity proﬁle. Figure 2.9 shows the stn velocity vectors after 1000
iterations with a 0.1 s physical time step. This proﬁle was then used as the initial values for
a transient velocity simulation lasting 10 s and having a time step of 0.05 s, which can be
seen in the video ﬁles labelled Vec_stn.wmw and Vel_stn.wmw. Studying the Vec_stn.wmw
video showed that while the compartments at the top and bottom were relatively stable, the
two compartments located between the impellers ﬂuctuated heavily. A common theme for the
ﬂuctuations in the the middle compartments was that the vortexes seen in the sides of Figure 2.9
moved up and down along the sides until the centre of the vortexes came close to the impellers.
This movement heavily changed the ﬂows of the inner compartments near the shaft, and to a
lesser degree, the upper and lower compartment. The Vel_stn.wmw video expanded upon this
by showing that even the vertical planes at the impeller levels had transient velocity proﬁles.
21
==PAGE:31==
2.2
Mesh size study
Table 2.3: Combined reactor and impeller mesh domain settings for the steady state simulation.
Setting
Value
Analysis type
Steady State
Reactor Domain
Material: Water
Domain motion: Stationary
Buoyancy model: Non Buoyant
Angular velocity: 200 rev min−1
Rotation axis: Global Y
Turbulence option: k-Epsilon
Heat Transfer: None
Impeller Domains
Material: Water
Domain motion: Rotating
Buoyancy model: Non Buoyant
Angular velocity: 200 rev min−1
Rotation axis: Global Y
Turbulence option: k-Epsilon
Heat Transfer: None
Boundary condition(s)
Impeller top: opening
Reactor Walls: No Slip Wall
Reactor Top: Free Slip Wall
Reactor Baﬄes: No Slip Wall
Reactor Shaft: No Slip Wall, Rotating Wall
around the Y-axis with 200 rev min−1
Impeller surface: No Slip Wall
Interface(s)
Rotational Periodicity around the Y-axis
between Impeller Symmetry side 1 and 2
Rotational Periodicity around the Y-axis
between Reactor Symmetry side 1 and 2
Top of the Impeller to the Reactor, Frame Change: Frozen Rotor
Sides of the Impeller to the Reactor, Frame Change: Frozen Rotor
Bottom of the Impeller to the Reactor, Frame Change: Frozen Rotor
Solver Control
Advection Scheme: High Resolution
Turbulence Numerics: First Order
Timescale Control: Physical Timescale
Physical Timescale: 0.1 s
Residual Type: RMS
Residual Target: 1e-7
22
==PAGE:32==
2.2
Mesh size study
Figure 2.9: Velocity vectors of the 712k reactor mesh at 200 rpm.
The transient nature made it more diﬃcult to directly compare the velocity proﬁles. Figure 2.10
and 2.11 were used to compare the velocity proﬁles of the three reactors after 1000 iterations
with a physical time step of 0.1 s. It became clear from studying them extensively that they
were not the same. Figure 2.12 shows the stn velocity along a vertical and horizontal line going
through the reactor. The vertical line is located directly between the baﬄes and halfway to the
outer wall, while the horizontal line is located at the centre impeller and so that it crosses both
baﬄes. Both of these can be seen in Figure C2 in Appendix C. Figure 2.12 showed that the
712k and 1008k were fairly close to each other, but as was observed in the velocity proﬁles, this
may have been due to the transient result coincidentally being at the same place for the two
simulations. As such, the steady state results should only be considered advisory at best.
23
==PAGE:33==
2.2
Mesh size study
Figure 2.10: Steady state velocity proﬁle of the 475k (left) and 712k (right) reactor meshes with
the 307k impeller mesh rotating at 200 rpm.
Figure 2.11: Steady state velocity proﬁle of the 712k (left) and 1008k (right) reactor meshes
with the 307k impeller mesh rotating at 200 rpm.
24
==PAGE:34==
2.2
Mesh size study
0
0.2
0.4
0.6
0.8
1
1.2
1.4
1.6
0
50
100
150
200
250
300
Velocity in Stn Frame [m s-1] 
Measurement
475k
712k
1008k
0
0.2
0.4
0.6
0.8
1
1.2
1.4
1.6
1.8
2
0
50
100
150
200
250
300
Velocity in Stn Frame [m s-1] 
Measurement
475k
712k
1008k
Figure 2.12: Velocity proﬁle of a horizontal (left) and vertical (right) line going through the
reactor domain (seen in Figure C2) at 200 rpm.
With the transient nature observed earlier, it was necessary to make a fully transient simula-
tion to compare the mixing results of the transient velocity proﬁle and the ﬁxed velocity proﬁle.
If the two were similar enough, the deduction in computational time that would be achieved
through ﬁxing the velocity proﬁle, was estimated to be quite signiﬁcant. The set-up used for
the fully transient simulation can be seen in Table 2.4, with the locked velocity proﬁle only
diﬀering in having activated the override for the solve ﬂuids model in Expert Parameter. The
full ccl ﬁle has been included as Reactor_tracer_nonSS.ccl. This ﬁle contains all settings that
were used for the tracer simulation. The used tracer was given the same kinematic diﬀusiv-
ity as OH−(DOH−=5.17e-9 m2 s−1) [12], and it was concentrated in a 20 cm high and 10 cm
wide cylinder-shaped area in the centre at the top of the reactor. This can be seen in Figure 2.13.
From the results of the previous impeller geometry, it was decided that the Lower Courant
Number had to be lowered from the standard 5 to 2, so as to avoid numerical errors appearing.
This was due to the high number of nodes per volume, which caused the movement of any
species to move through a signiﬁcant number of elements in all time step sizes above microsec-
onds. Since the expected mixing time was roughly a minute, having time steps that small would
make the computational time unreasonably long. It should furthermore be noted that the same
6 Monitor Points from Figure 2.8 were used to track the tracer concentration.
25
==PAGE:35==
2.2
Mesh size study
Figure 2.13: Tracer concentration at t=0 s.
Using the settings of Table 2.4, the fully transient system was simulated for all three reactor
meshes. The mixing data was then normalized according to Eq. (1.26), and the logarithmic
RMS squared deviation for all points was found using Eq. (1.27). The log
 σ2
RMS
 of the three
meshes can be seen in Figure 2.14. It was evident from Table 2.5 that when using a fully transient
system, all meshes had a nearly identical log
 σ2
RMS
 proﬁle and reached 95% homogeneity at
roughly the same time. This would usually mean that the 475k mesh is as good as the 712k to
use, but it was decided to use the 712k mesh instead. The reasoning for this choise was due in
part to the more similar proﬁles of Figure 2.12, partly because no computation time was saved,
as shown in Table 2.5, and partly due to earlier experimentation on the Reactor_e mesh with
the old impeller geometry showing that the node concentration of the 712k mesh was preferable.
The latter comparison can be seen in Appendix D.
26
==PAGE:36==
2.2
Mesh size study
Table 2.4: Combined reactor and impeller mesh domain settings for a transient tracer simula-
tion, with the remaining settings as deﬁned in Table 2.3.
Setting
Value
Analysis type
Transient
Total Time: 3 min
Timesteps: 500·0.01, 0.1 s
Additional variables
Name: Tracer
Variable Type: Volumetric
Units: kg m−3
Reactor Domain
ﬂuid Models
Additional Variable: Tracer
Tracer Option: Transport Equation
Kinematic Diﬀusivity: 5.17e-9 m2 s−1
Global Initialization
Cartesian Velocity Components: Automatic
Value: 0
Relative pressure: 0
Tracer Option: Automatic with Value
Add. Var. value: step (y/1[m] −1.72) · (1 −step(sqrt((x/1[cm])2 +
(z/1[cm])2) −5)) · 1[mol]/

(5[cm])2 · π · 20[cm]

Solver Control
Advection Scheme: High Resolution
Lower Courant Number: 2
Min. Coeﬀ. Loops: 1
Max. Coeﬀ. Loops: 10
Residual Type: RMS
Residual Target: 1e-4
Execution Control
Initial Values Speciﬁcation: True
Option: Result File
File name: Steady state result ﬁle
Use Mesh From: Solver Input File
Table 2.5: Mixing times for 95% mixing in the tracer simulation.
Reactor mesh
475k
712k
1008k
712k 1000 SS
Mixing time (s)
56.8
54.8
56.3
96
CPU time (hr)
378
357
414
143
With the 712k mesh chosen as the reactor mesh, a comparison was made between the fully
transient and the locked velocity proﬁle mixing results. The 1000 iteration velocity proﬁle was
used as the constant velocity proﬁle in one case, and a velocity proﬁle gained through 1010
iterations of 0.1 s physical time steps was also investigated. The normalized tracer comparison
between the 1000 iteration result and the fully transient result can be seen in Figure 2.15. From
Figure 2.15, it was clear that the transient behaviour observed in Vec_stn.wmw impacted the
measuring results greatly. Freezing the velocity proﬁle gave even concentration curves that took
longer to reach homogeneity than the chaotic transient oscillations. The diﬀerence in mixing
time was especially evident in the log
 σ2
RMS
 proﬁles of Figure 2.16. The mixing time for a
locked velocity proﬁle was nearly twice as large as for a transient velocity proﬁle. Furthermore,
even two locked proﬁles with only 10 iterations to separate them were still 5 s apart, which
showed that the ﬁxed velocity result would be highly dependent on circumstance.
27
==PAGE:37==
2.2
Mesh size study
-7
-6
-5
-4
-3
-2
-1
0
1
0
20
40
60
80
100
120
log(σRMS
2)
Time [s]
475k
712k
1008k
Figure 2.14: RMS values for the Monitor Points of Figure 2.8 for the 200 rpm tracer simulation.
0
0.5
1
1.5
2
2.5
3
3.5
0
20
40
60
80
100
120
Normalized concentrations
Time [s]
MP1 712k
MP2 1000
MP3 712k
MP4 712k
MP5 712k
MP6 712k
Figure 2.15: Normalized concentrations comparison at 200 rpm between a ﬁxed velocity proﬁle
(dotted) and a transient velocity proﬁle (solid) for the Monitor Points (MP) of Figure 2.8.
With a transient velocity proﬁle being necessary to model the mixing time predictions, it was
necessary to ﬁnd the highest time step that would still provide the same mixing time proﬁle.
Figure 2.17 illustrates the log
 σ2
RMS
 for diﬀerent time steps. It could here be noted that while
the time steps below 0.3 s were all the same, time steps of 0.4 s and above gave more random
results. This indicated that above time steps of 0.3 s, the transient behaviour of the system
would no longer be accurately modelled. The mixing times as a function of time steps can also
be observed in Figure 2.18
28
==PAGE:38==
2.2
Mesh size study
-7
-6
-5
-4
-3
-2
-1
0
1
0
20
40
60
80
100
120
log(σRMS
2)
Time [s]
712k non-SS
712k SS 1000
712k SS 1010
Figure 2.16: RMS values for the Monitor Points of Figure 2.8 for the 200 rpm tracer simulation.
Comparison made between between two ﬁxed velocity proﬁles (SS) and a transient velocity
proﬁle (non-SS).
-3.5
-3
-2.5
-2
-1.5
-1
-0.5
0
0.5
1
1.5
0
20
40
60
80
100
120
log(σRMS
2)
Time [s]
1s
0.7s
0.6s
0.5s
0.4s
0.3s
0.2s
0.1s
Figure 2.17: RMS values for the Monitor Points of Figure 2.8 for the 200 rpm tracer simulation
with diﬀerent time steps.
Summarily, it was concluded that the 712k Reactor_f mesh and 307k Impeller_new mesh were
capable of simulating the transient mixing behaviour if a fully transient simulation and a time
step below 0.3 s was used. This mesh, which consisted of 1.6M nodes and 1.5M elements, was
used for the upcoming studies.
29
==PAGE:39==
2.2
Mesh size study
50
55
60
65
70
75
80
85
0.01
0.1
1
10
Mixing time [s]
Time step [s]
Figure 2.18: Plot of mixing times for 200 rpm transient tracer simulations for diﬀerent time
steps.
30
==PAGE:40==
3
Validation of the ﬂuid dynamics with the mixing time
In this section, the CFD model that was derived in Section 2, will be compared to experimental
mixing data at diﬀerent impeller speeds. The purpose of this comparison was to validate the
CFD model’s ﬂuid dynamics before it was used for the fermentation simulations of Section 4.
3.1
Experimental set-up
The mixing experiments were carried out by Robert Spann and Peter Nielsen on a pilot reactor
belonging to Chr. Hansen that had the same geometry as the one seen in Figure 2.1. Tap water
was used as a medium in the pilot reactor, where two impeller speed settings were tested in
the reactor. These impeller speed settings were 200 and 100 rpm. These settings were later
found to not be directly measuring the rpm of the impeller shaft. Instead, a calibration of
the expected power usage per rpm was likely likely used. It was not possible to do a laser
tachometer measurement until a month before this project’s due date. At this measurement,
the 100 and 200 rpm settings were found to actually give 132 and 242 rpm. Pulses of NaoH and
H3PO4 were added at the top of the tank. The pH was then measured at the points indicated
in Figure 2.8 and logged every second. In all of the pulses at 132 rpm, and all except the ﬁrst
two pulses at 242 rpm, the pH was kept at or below 6. Pulse 1 at 242 rpm started at pH 8 and
pulse 2 started at pH 6.36. The pulses were conducted in succession and without exchanging
the medium between experiments. Their initial pH can be found in Table 3.1.
An issue occurred that rendered Sensor 1 unusable. The experiments therefore only collected
data from Sensor 2-6. The raw data of these can be found in Appendix E.
Table 3.1: Pulses used in experiments.
132 rpm
242 rpm
pHi
Pulse content
Volume (ml)
pHi
Pulse content
Volume (ml)
Pulse 1
6.01
85% H3PO4
100
7.98
85% H3PO4
150
Pulse 2
4.58
27% NaOH
50
6.36
85% H3PO4
80
Pulse 3
5.45
27% NaOH
80
5.95
85% H3PO4
80
Pulse 4
5.94
85% H3PO4
90
5.05
27% NaOH
70
Pulse 5
4.84
27% NaOH
40
5.73
27% NaOH
80
Pulse 6
5.41
27% NaOH
80
6.08
85% H3PO4
80
Pulse 7
-
-
-
5.55
27% NaOH
80
3.2
CFD set-up
The CFD simulation was set up as in Section 2.2.2. Additionally, as with the 200 rpm system,
the transient proﬁles for 132 and 242 rpm were investigated for the highest allowed time step.
The eﬀect of the CO2-carbonate buﬀer on the mixing time was investigated in Appendix A.
Based on the conclusions of Appendix A, it was assumed that the eﬀect of the buﬀer system
would be negligible at the experimental conditions with a pH below 6. The buﬀer system was
therefore not included in the CFD simulation.
31
==PAGE:41==
3.3
Results
3.3
Results
The transient 132 and 242 rpm CFD tracer simulations were investigated at diﬀering time steps
to determine the highest allowed time step value. As in Section 2.2.2, an initial steady state
velocity proﬁle was calculated using 1000 iteration and a 0.1 s physical time step. Figure 3.1
showed that for the 132 rpm system, a time step at or below 0.5 s was suﬃcient to model the
transient ﬂuid behaviour consistently. For 242 rpm, Figure 3.2 showed that 0.3 s was the highest
time step that was usable for consistently capturing the transient ﬂuid behaviour.
70
75
80
85
90
95
100
105
110
115
120
0.1
1
Mixing time [s] 
Time step [s] 
-4.5
-4
-3.5
-3
-2.5
-2
-1.5
-1
-0.5
0
0.5
1
0
20
40
60
80
100
120
log(σRMS
2)
Time [s]
0.1s
0.2s
0.3s
0.4s
0.5s
0.6s
0.7s
1s
Figure 3.1: Mixing times at diﬀering simulation time steps of the 132 rpm system (left) and
their log
 σ2
RMS
 proﬁles (right).
40
45
50
55
60
65
70
0.1
1
Mixing time [s] 
Time step [s] 
-8
-7
-6
-5
-4
-3
-2
-1
0
1
0
20
40
60
80
100
120
log(σRMS
2)
Time [s]
0.1s
0.2s
0.3s
0.4s
0.5s
1s
Figure 3.2: Mixing times at diﬀering simulation time steps of the 242 rpm system (left) and
their log
 σ2
RMS
 proﬁles (right).
With the maximum time steps identiﬁed, a simulation of each impeller speed was run with the
following time step series: 500·0.01, 100·0.05, 0.1 s. The reason for the low time steps of this
set-up was mostly due to concerns regarding the video capture of the transient ﬁles. Both of
the runs were converted into videos, which were named Reactor_tracer_nonSS_132rpm.wmw
and Reactor_tracer_nonSS_242rpm.wmw respectively. An overview of these videos can also
be seen in Figure 3.3-3.6.
32
==PAGE:42==
3.3
Results
Figure 3.3: Tracer concentration in the transient system at 132 rpm (1 of 2).
Figure 3.4: Tracer concentration in the transient system at 132 rpm (2 of 2).
33
==PAGE:43==
3.3
Results
Figure 3.5: Tracer concentration in the transient system at 242 rpm (1 of 2).
Figure 3.6: Tracer concentration in the transient system at 242 rpm (2 of 2).
34
==PAGE:44==
3.3
Results
Comparing the two videos showed that in the 242 rpm case, the tracer was sucked into the
upper impeller roughly 0.5 s quicker than in the 132 rpm case. It could be noted from both the
242 and 132 rpm videos that compartments of roughly equivalent tracer concentrations could
be seen between the impellers after the tracer had reached the bottom. These compartments
seemed to follow the vortex movements that were shown in Vec_stn.wmw and discussed in
Section 2.2.2. This would explain why the diﬀerence in mixing time between the transient and
ﬁxed velocity proﬁle was so large. As the vortexes moved up and down between the impellers,
the tracer was distributed faster to a larger area than if the tracer had had to travel through
two ﬁxed vortexes of equivalent velocities. Similarly, when the low tracer concentration moved
up to the impeller above it, it received a richer tracer inlet stream than it would have, if the
tracer had had to travel halfway through the space between the impellers.
The Re number that was calculated for the domains of the CFD simulation, has been sum-
marized in Table 3.2, along with the total computational time. From these values, it can be
noted that all domains are well within the turbulent regime, and that the 242 rpm simulation
requires less computational power than the 132 rpm simulation. A possible reason for this could
be that the 242 rpm simulation reaches homogeneity faster than the 132 rpm simulation, which
lessens the computational demand.
Table 3.2: Reynold’s numbers and CPU hours for the CFD domains in the tracer pulse simu-
lations.
132 rpm
242 rpm
Re
U. Impeller
2.32e+5
4.27e+5
M. Impeller
2.31e+5
4.25e+5
L. Impeller
2.19e+5
4.03e+5
Reactor
1.98e+5
3.60e+5
CPU time (hr)
433
361
The normalized CFD tracer concentrations were compared with the experimental results for
242 rpm in Figure 3.7. It became clear that the CFD simulation ﬁt the NaOH experimental
values fairly well for these settings. The experimental data appear to be less jagged than the
CFD simulation, but this could in part be explained by the experimental data only logging a
measuring point every second. In comparison, the CFD simulation logged every 0.1 s at the
highest time step. In Figure 3.8, the H3PO4 mixing times could be noted to be rising every time
a new pulse of H3PO4 was added, while the NaOH pulses were consistently located together.
This indicated that the H3PO4 pulses underwent chemical reactions that distorted the mixing
time with a dependence on the concentration of H3PO4. This observation cast doubt on the
validity of all H3PO4 tracer data. As seen in Table 3.3, it was found that the CFD mixing
time (46 s) ﬁts the averaged NaOH mixing time (47 s) well. The Average Absolute Relative
Deviation (AARD), given by Eq. (4.2), could be noted to only be 2.1% for 242 rpm NaOH.
Combined with the good ﬁt in Figure 3.7, this indicated that the the CFD model was capable
of simulating the 242 rpm system with a transient velocity proﬁle and a time step below 0.3 s.
Table 3.3: Mixing times for the experimental pulses and the CFD simulations.
132 rpm
242 rpm
NaOH
H3PO4
CFD
NaOH
H3PO4
CFD
Avg. Mixing time (s)
54
78
83
47
52
46
AARD
54%
6.4%
-
2.1%
12%
-
35
==PAGE:45==
3.3
Results
When comparing the CFD results with the experimental results for 132 rpm (Figure 3.9 and
3.10), it was noteworthy that there was a clear divide between the H3PO4 and NaOH mixing
behaviours. Common wisdom dictated that in such cases, the lowest mixing time was closest
to the real mixing time. Furthermore, given the behaviour of the H3PO4 pulses observed in the
242 rpm case, it was reasonable to argue that the H3PO4 had a lag time that resulted from
its chemical reactions. Interestingly, the 132 rpm H3PO4 log
 σ2
RMS
 proﬁle did not share the
increasing mixing time trend that the 242 rpm H3PO4 pulses had. This could be explained by
the H3PO4 concentration having become saturated enough in the 242 rpm pulses for the lag
time to not be aﬀected by further H3PO4 increases in the 132 rpm pulses.
When comparing the NaOH pulses and CFD simulation at 132 rpm, there was a clear dif-
ference in both the log
 σ2
RMS
 proﬁles of Figure 3.10 and the normalized concentration proﬁles
of Figure 3.9. This was considered odd given the good ﬁtting at 242 rpm. Eq. (1.33) can be
used to calculate what the mixing times theoretically should have been. Unfortunately, there
were no power measurements for the impellers at Chr. Hansen, so the power number (Po) could
not be calculated directly from Eq. (1.31). However, due to the Re of the system (Table 3.2)
being large enough for the Po to be mostly constant, Eq. (1.33) could be used to back calculate
Po for each CFD mixing time. By using the Po, the mixing time for the other impeller speed
could then be calculated. The results are summarized in Table 3.4.
Table 3.4: Theoretical CFD derived power numbers and the mixing times derived from those
power numbers using Eq. (1.33).
132 rpm
242 rpm
Poi
4.72e-7
4.50e-7
Mixing time that is calculated
for the j impeller rpm from
the power number of impeller
speed i (Poi) by using Eq. (1.33).
45
84
As shown in Table 3.4, the CFD simulation’s mixing times could be calculated quite accurately
using Eq. (1.33) and the Po of the other impeller speed. None of the pulses could replicate this
feat. Based on the good ﬁtting between the 132 and 242 rpm CFD mixing times, doubt can be
cast on the validity of all of the 132 rpm experimental results. A possible explanation could be
that the impeller speed was not changed from 242 rpm to 132 rpm between the experiments.
Further data sets for 132 rpm would help settle whether an error in the experimental set-up
was made, or whether the CFD simulation needs to be improved.
In the absence of further experimental data, it was concluded that the CFD simulation was
adequately able to model the pilot tank’s mixing behaviour if transient velocity proﬁles were
used with a time step at or below 0.5 s for 132 rpm and 0.3 s for 242 rpm.
36
==PAGE:46==
3.3
Results
0
0.2
0.4
0.6
0.8
1
1.2
1.4
1.6
1.8
2
0
20
40
60
80
100
120
Normalized concentration
Time [s]
MP1 CFD
MP2 exp
MP3 CFD
MP4 CFD
MP5 CFD
MP6 CFD
Figure 3.7: Normalized concentrations comparison between a 242 rpm transient velocity proﬁle
simulation (solid) and 1 experiment (Pulse 7, dotted) for the Monitor Points (MP) of Figure
2.8.
-8
-7
-6
-5
-4
-3
-2
-1
0
1
0
20
40
60
80
100
120
log(σRMS
2)
Time [s]
Pulse 1
Pulse 2
Pulse 3
Pulse 4
Pulse 5
Pulse 6
Pulse 7
CFD 242 rpm
Figure 3.8: log
 σ2
RMS
 proﬁles of the NaOH (black) and H3PO4 (light blue) experimental pulses
and the transient CFD simulation at 242 rpm.
37
==PAGE:47==
3.3
Results
0
0.2
0.4
0.6
0.8
1
1.2
1.4
1.6
1.8
2
0
20
40
60
80
100
120
Normalized concentration
Time [s]
MP1 CFD
MP2 exp
MP3 CFD
MP4 CFD
MP5 CFD
MP6 CFD
Figure 3.9: Normalized concentrations comparison between a 132 rpm transient velocity proﬁle
simulation (solid) and 1 experiment (Pulse 3, dotted) for the Monitor Points (MP) of Figure
2.8.
-7
-6
-5
-4
-3
-2
-1
0
1
0
20
40
60
80
100
120
log(σRMS
2)
Time [s]
Pulse 1
Pulse 2
Pulse 3
Pulse 4
Pulse 5
Pulse 6
CFD 132 rpm
Figure 3.10: log
 σ2
RMS
 proﬁles of the NaOH (black) and H3PO4 (light blue) experimental
pulses and the transient CFD simulation at 132 rpm.
38
==PAGE:48==
4
pH controlled fermentation simulation using CFD
With the ﬂuid dynamics validated in Section 3, the ﬂuid dynamic model could then be used
to model the fermentation process of a lactic acid bacteria fermentation in a pilot scale reactor
with the aim to predict the pH gradients during the fermentation. The kinetics of the LAB
are presented in Section 4.2. With the kinetics being dependent on the pH, a model for the
pH was needed. This model is presented in Section 4.1. The LAB kinetics and pH model were
combined with the CFD model in Section 4.3, with the results being shown in Section 4.4.
4.1
pH correlation
Due to the intensive computational power that was required to simulate a true water dissocia-
tion kinetic model in CFD (as shown in Appendix A for the carbonate system), it was desired to
simplify the model for the fermentation process. From experience with the fermentation reactor
at Chr. Hansen, it was postulated that a pH correlation could be made using only the lactic
acid and ammonia concentration. The data from 4 lab scale experiments performed by Robert
Spann were studied to obtain this correlation.
To compare a correlation against a series of data points, it was necessary to have a single
value that represented the ﬁtness of the correlation to all of the data points. For this purpose,
Eq. (4.1) was used to ﬁnd the collective squared diﬀerence Q for all relevant data points. Calci
is the calculated value and Expi is the experimental value.
Q =
X
i
(Calci −Expi)2
(4.1)
While Q is good for ﬁtting a correlation to data, it is largely useless in providing an under-
standable estimate of a correlation’s ﬁtting to data. The Average Absolute Relative Deviation
(AARD) was therefore calculated by using Eq.
(4.2) to describe how far, on average, the
[...]
the OH−in the system. 4 smaller whirlpools were located in each of the corners, which slowed
the spread of OH−to those areas when compared with the center whirlpool. The pH was mea-
sured at the source point and at the center of one of the corner whirlpools, so as to compare
the quick changes in the center whirplpool and the slower changes at the corners.
The Reynold’s number for the system was found to be 1.87e+3, making it not fully turbulent
or laminar. For this reason, a system with and without diﬀusion was tested for the stiﬀsolver
settings that were found earlier. For a fully turbulent system, the Sherwood number would
indicate that a diﬀusion coeﬃcient several orders of magnitude larger than H+ would be needed
for the diﬀusion to make a diﬀerence. The used ccl has been included as Cube_carbonate.ccl.
d
==PAGE:69==
A.2
CFD implementation
Figure A3: CFX system used for testing the stiﬀsolver.
Figure A4 shows the pH at the two monitoring points for the two situations. As was visible
from the ﬁgure, the instability of the pH prediction, which was observed earlier in Figure A2,
persisted for longer than usual, with the last oscillations occurring around 12 s. It was further-
more notable that only the source point pH measurement observed theses instabilities. This
indicated that the smaller concentration changes that were being transferred out to the corners,
were in such small concentrations that no instability occurred with the stiﬀsolver. There was
little diﬀerence between the case with and without diﬀusion, indicating that the diﬀusion was
negligible when compared to the kinetic mass transfer.
When comparing with the mass fraction RMS values that were produced during the simu-
lation, as seen in Figure A5, it became clear that while the bicarbonate RMS was initially quite
high, it was quickly reduced signiﬁcantly. In comparison, the carbonate, proton and hydroxide
mass fraction RMS values remained higher for longer. All of them did however drop signiﬁ-
cantly after around 10 s, and continued to drop as time went on. This further indicated that
the instability went down as the slower kinetics become dominant.
The ﬁnal converged pH was 0.07 lower than it should have been, equalling a 0.9% error in
pH. This was considered good enough to be tested in a pilot scale reactor simulation.
e
==PAGE:70==
A.2
CFD implementation
5
5.5
6
6.5
7
7.5
8
8.5
9
0
5
10
15
20
25
30
35
40
45
50
pH
Time [s]
Matlab
pH at feed+diff
pH in corner+diff
pH at feed-diff
pH in corner-diff
Figure A4: pH change for cubical CFX stiﬀsolver implementation with an OH−source point
(Figure A3) with and without diﬀusion.
1.00E-12
1.00E-11
1.00E-10
1.00E-09
1.00E-08
1.00E-07
1.00E-06
1.00E-05
1.00E-04
1.00E-03
1.00E-02
1.00E-01
1.00E+00
1.00E+01
1.00E+02
0
5
10
15
20
25
30
35
40
45
50
Mass fraction RMS
Time [s]
Proton
Bicarbonate
CO2
Carbonate
Hydroxide
Figure A5: Mass fraction RMS during the simulation of feed+diﬀof Figure A4.
f
==PAGE:71==
A.2
CFD implementation
The system was implemented in the Reactor_e and Impeller_e mesh that was found in Ap-
pendix D. Note that the dimensions of the chosen impeller diﬀer from the rest of this thesis.
The choice of Impeller_e allowed for a steady state velocity proﬁle to be used instead of a tran-
sient velocity proﬁle. The used ccl was identical to the cube’s, except that the OH−feed was
adjusted to correspond with the larger volume of the pilot reactor. Furthermore, the injection
point was located halfway between the top of the shaft and the top of the reactor. This ccl was
included as Reactor_carbonate.ccl.
A video entitled Carbonate_pH_200rpm.wmw has been included as an appendix, with its
content having been summarized in Figure A6 and A7. These ﬁgures, along with the pH plot of
Figure A10, show that the oscillations that were observed in the cube, persisted for longer, but
were contained to the upper half of the reactor. After 20 s, the pH proﬁle stabilized and behaved
as a non-reacting tracer experiment. Additionally, as seen in Figure A11, the log (σRMS) proﬁle
of the buﬀer system followed the log (σRMS) of the pure tracer system after the initial instability
was over. As could also be noted in Figure A8-A9, A11 and the Carbonate_pH_400rpm.wmw
video, the same system, but at 400 rpm, was aﬀected more initially by the buﬀer system. This
was thought to be because the initial overshooting of the carbonate buﬀer system had a stabi-
lization time that was only 1.5 times larger than the mixing time. In comparison, the 200 rpm
system had a mixing time 3 times larger than the buﬀer time. This provided the slower reactions
in the 200 rpm buﬀer system with enough time to adjust to the small changes occurring as the
ﬂuid is mixed.
In conclusion, the carbonate buﬀer system should only be taken into account when 6 ≤pH ≤10
and when the mixing time is near or below the time it takes for the buﬀer to stabilize in a ho-
mogeneous environment.
even following its log (σRMS) proﬁle and having roughly the same mixing time, as seen in Figure
A11.
g
==PAGE:72==
A.2
CFD implementation
Figure A6: pH in the carbonate buﬀer system at 200 rpm (1 of 2).
Figure A7: pH in the carbonate buﬀer system at 200 rpm (2 of 2).
h
==PAGE:73==
A.2
CFD implementation
Figure A8: pH in the carbonate buﬀer system at 400 rpm (1 of 2).
Figure A9: pH in the carbonate buﬀer system at 400 rpm (2 of 2).
i
==PAGE:74==
A.2
CFD implementation
5.5
6
6.5
7
7.5
8
8.5
9
0
20
40
60
80
100
120
pH 
Time [s] 
Matlab
pH at injection point
pH at MP3
Figure A10: pH plot for the pilot scale rector of Appendix D with the carbonate buﬀer system
at 200 rpm.
-4
-3
-2
-1
0
1
2
3
0
20
40
60
80
100
120
log(σRMS
2)
Time [s]
Tracer 200 rpm
Carbonate 200 rpm
Tracer 400 rpm
Carbonate 400 rpm
Matlab
Figure A11: log (σRMS) comparison between the CFD carbonate buﬀer system, pure tracer
system at 200 rpm and 400 rpm, and the homogeneous Matlab base case.
j
==PAGE:75==
B
Mesh iterations
This sections details the major changes that occurred to the meshes that were used in the
simulations, as well as the quality of the mesh iterations.
B.1
Impeller
The impeller geometry was changed halfway through the project due to a discovery that the
provided geometry did not match reality. The old geometry dimensions can be seen in Figure
B1. The new dimensions are available in Figure 2.1, and the mesh iteration for it is available
on page m.
Figure B1: Sketch of old impeller dimensions.
The ﬁrst iteration of the old geometry structured impeller mesh, henceforth dubbed impeller_org,
was constructed for an exam project in the DTU course, 28831 CFD in Chem. Eng. The project
had a 5-day time limit to construct, mesh and carry out all simulations, along with a total node
limit of 500k for the entire simulation. This mesh can be seen in Figure B2. It has a total node
count of 42k, no mesh element volumes below 3 mm3 and 12.13% of the element angles in it
are below 18 degrees, though none below 4.5 degrees and only 0.348% below 9 degrees. This
iteration was rejected due in part both to the limited node count and the signiﬁcant number of
low angles, especially around the impeller blades.
k
==PAGE:76==
B.1
Impeller
Figure B2: Impeller_org structured mesh of the old geometry with 42k nodes.
The second major impeller iteration, henceforth dubbed impeller_d, was changed from the ﬁrst
iteration by having a signiﬁcantly ﬁner standard mesh of 159k nodes and expanding the boxes
around the impeller blades. It can be seen in Figure B3. The angles of this iteration has 1.273%
of the angles below 18 degrees, none below 4.5 degrees and only 0.039% below 9 degrees. 18.3%
of the mesh element volumes were below 3 mm3, with 4.32% being between 0 and 1 mm3, and
the smallest being 0.55 mm3. The iteration was rejected due to a failure to calculate transient
concentrations with the reactor_d mesh, creating numerical errors in the interface, and for
having too many small volumes.
Figure B3: Impeller_d structured mesh of the old geometry with 159k nodes.
The third and ﬁnal major iteration for the old geometry, henceforth dubbed impeller_e, was
changed from impeller_d by reducing the size of the o-grids outlining the impeller blades and
cleaning up some angles in the periphery. It can be seen in Figure B4. It has 115k nodes as a
standard. There are only 0.034% of the angles that lie below 18 degrees, and of these, none are
below 13.5 degrees. 6.26% of the element volumes lie below 3 mm3, and none below 1.63 mm3.
l
==PAGE:77==
B.1
Impeller
Figure B4: Impeller_e structured mesh of the old geometry with 115k nodes.
The following mesh is the ﬁrst iteration of the new geometry dimensions, henceforth dubbed
impeller_new. A major change from previous iterations is that the blades are no longer cut
out with o-grids, but rather directly through splitting blocks and ﬁtting the lines to the blades.
This provided the mesh seen in Figure B5, which has 352k nodes as a standard size. Of these,
11.03% of the elements have a volume below 3 mm3, with the lowest at 0.699 mm3. These are
concentrated around the edge of the shaft, as expected. Unlike previous iterations, the lowest
element angle was 36 degrees, with only 23.06% of the element angles being below 72 degrees.
This is a considerable improvement upon previous iterations of the old geometry.
Figure B5: Structured mesh of the new geometry with 352k nodes.
m
==PAGE:78==
B.2
Reactor
B.2
Reactor
Similar to the impeller, the ﬁrst iteration of the reactor mesh was made for an exam project with
only 5 days and 500k nodes available. This iteration can be seen in Figure B6 under the name
reactor_org. It has 327k nodes, of which 0.16% of elements has a volume below 3 mm3, with
the lowest being 1.42 mm3. 0.445% of the element angles are below 18 degrees, with 0.006%
being below 4.5 degrees and 0.084% below 9 degrees. It was rejected due to the low node count
available.
Figure B6: Reactor_org structured mesh with 327k nodes.
The second major iteration of the reactor mesh, reactor_d, can be seen in Figure B7. It was
changed from the previous iteration by making it ﬁner and cleaning up some of the edge lines
at the rounded bottom. It has 660k nodes, of which 0.619% of the element volumes are below
3 mm3, with 0.011% between 0 and 1 mm3 and the lowest being 0.684 mm3. 0.342% of the
element angles are below 18 degrees, with 0.002% being below 4.5 degrees and 0.044% being
below 9 degrees. It was rejected in consort with impeller_d mesh for not being able to calculate
transient concentration simulations due to having issues with numerical errors near the interface.
The number of low angles was also considered a concern.
n
==PAGE:79==
B.2
Reactor
Figure B7: Reactor_d structured mesh with 660k nodes.
The third major iteration of the reactor mesh, reactor_e, was changed from reactor_d in a
number of ways. Its overview can be seen in Figure B8. The ﬁrst major change was made to
the baﬄes, where the o-grids were reﬁned to provide less odd angles. The diﬀerence between the
two can be seen in Figure B9. The second major diﬀerence was made by introducing another
o-grid into the top of the shaft, as seen in Figure B10. This changes provided less odd angles
and small volumes in the mesh between the top of the shaft and the top of the reactor, as the
inside of the shaft was cut out, and therefore unaﬀected. The third major change was conducted
by introducing linear spacing near the impellers and shaft, so that it was ﬁnest near them. It
was also decided to increase the number of node points on the sides of the impellers to combat
the issue of the impeller mesh and reactor meshes being too diﬀerent near the interfaces. The
latter two changes can be seen in Figure B11.
The third iteration mesh has a standard size of 940k nodes. Of these, 37.9% elements have
a volume below 3 mm3, with the lowest being 0.955 mm3, and 2.203% being below 2 mm3.
0.134% of the element angles are below 18 degrees, of which 0.001% are below 4.5 degrees and
0.024% below 9 degrees. Most of the low angles were located in the rounded arc, where the
bottom starts to ﬂatten, but the remainder of them were located near the bottom of the baﬄes.
o
==PAGE:80==
B.2
Reactor
Figure B8: Reactor_e structured mesh with 940k nodes.
Figure B9: Reactor_d top to the left and reactor_e top to the right.
Figure B10: Reactor_d shaft top to the left and reactor_e shaft top to the right.
p
==PAGE:81==
B.2
Reactor
Figure B11: Front view of reactor_d to the left and reactor_e to the right.
In conjunction with the new mesh for the updated impeller geometry, a similar approach to the
impeller blades was suggested used in the reactor mesh to remove the errors near the end of the
baﬄes(seen in Figure B12) and reduce the number of element angles below 9 degrees.
q
==PAGE:82==
B.2
Reactor
Figure B12: Error in the mesh near the baﬄe ends for reactor_org-reactor_e.
The fourth major iteration, referred to as reactor_f, was created from scratch without o-grids
in the baﬄes, but with the extra o-grid in the shaft that was introduced between reactor_d and
reactor_e. It has a standard size of 1008k nodes, with 74.52% elements being below 3 mm3 and
4.656% below 2 mm3. 0.231% of the element angles are below 18 degrees, with 0.059% being
below 13.5 degrees and zero percent below 9 degrees. As such, though the number of small
angles have increased slightly, the number of very low angles have been eliminated. The low
element angles are furthermore concentrated in at the very bottom of the reactor, where the
rounded part evens out.
Figure B13: Reactor_f structured mesh with 1008k nodes seen from the side.
r
==PAGE:83==
Figure B14: Reactor_f structured mesh seen from the top.
C
Reactor illustrations
This appendix shows the velocity lines of Section 2.2 and the NH3 source point for the fermen-
tation simulation of Section 4.
Figure C1: Line on which the velocity proﬁle of Figure 2.7 is measured.
s
==PAGE:84==
Figure C2: Lines of which the velocity proﬁle of Figure 2.12 are measured.
Figure C3: NH3 source point for the fermentation simulation.
t
==PAGE:85==
D
Mesh size determination for old impeller
The Impeller_e and Reactor_e meshes from Appendix B will in this section be subjected to
the size determination also used in Section 2. The examined mesh sizes are listed in Table D.1.
Table D.1: Mesh size overview of Impeller_e and Reactor_e.
Mesh
Total number of nodes
|
Nodes per m3
Reactor
348k
646k
940k
-
1.02M
1.89M
2.75M
-
Impeller
51k
115k
277k
489k
19.2M
43.4M
104.5M
184.6M
The impeller was set up using the same set-up as Table 2.2, giving the velocity proﬁles of Figure
D2 and D3. The velocity was also measured along a line going through the center of the middle
impeller blade in Figure D1. From these, it could be observed that the 277k impeller mesh and
489k mesh were nearly identical, while a signiﬁcant diﬀerence was still present between the 51k,
115k and 277k meshes. It was therefore decided to use the 277k Impeller_e mesh in cooperation
with Reactor_e mesh.
0
0.5
1
1.5
2
2.5
3
3.5
4
4.5
5
0
50
100
150
200
250
300
Velocity in Stn Frame [m s-1] 
Measurement
51k
115k
277k
489k
Figure D1: Velocity proﬁle of a line (Figure C1) going through the impeller domain of Impeller_e
at 200 rpm.
u
==PAGE:86==
Figure D2: Velocity proﬁle at 200 rpm of the Impeller_e mesh from Appendix B 51k (left) and
115k (right) impeller mesh.
Figure D3: Velocity proﬁle at 200 rpm of the Impeller_e mesh from Appendix B 277k (left)
and 489k (right) impeller mesh.
v
==PAGE:87==
Table 2.3 was used in the velocity proﬁle simulations. Unlike with the new geometry, this im-
peller geometry did converge, though it was necessary to reduce the RMS value to 1e-7 due to
the measuring points not converging above an RMS of 1e-6. A possible explanation as to why
this geometry converged could be that the new impeller blades were located closer to the center
and moved 37% less liquid during each rotation than the larger old impeller geometry. The
combined eﬀect of the measuring points being closer to the source of the disturbance (the im-
peller blades) and the disturbance being larger provides less room for transient vortexes to occur.
Based on Figure B5-D6, the 646k and 940k meshes resembled each other the most. This was
however not the only measure to take into account. As in Section 2, the mixing times were
also compared, though a locked velocity proﬁle was used instead of a fully transient simulation.
The results of this can be seen in Figure D7, where it could again be seen that the 940k and
646k results were fairly close to each other, while the 348k mesh was about 10 s from the two
of them, as seen in Table D.2.
Based on these observations, the 646k mesh was therefore considered to be good enough to
not warrant the extra computational time required by using the 940k mesh.
Table D.2: Mixing and computational times for Reactor_e and Impeller_e.
Mesh size
348k
646k
940k
Mixing time (s)
87
98
102
CPU hours
45
56
70
w
==PAGE:88==
Figure D4: Steady state velocity proﬁle at 200 rpm of the Reactor_e mesh from Appendix B
646k (left) and 348k (right) meshes.
Figure D5: Steady state velocity proﬁle at 200 rpm of the Reactor_e mesh from Appendix B
940k (left) and 646k (right) meshes.
x
==PAGE:89==
0
0.5
1
1.5
2
2.5
3
3.5
4
4.5
5
0
50
100
150
200
250
300
Velocity in Stn Frame [m s-1] 
Measurement
348k
646k
940k
0
0.2
0.4
0.6
0.8
1
1.2
1.4
1.6
1.8
2
0
50
100
150
200
250
300
Velocity in Stn Frame [m s-1] 
Measurement
348k
646k
940k
Figure D6: Velocity proﬁle of a horizontal (left) and vertical (right) line going through the
Reactor_e domain (Figure C2) at 200 rpm.
-7
-6
-5
-4
-3
-2
-1
0
1
0
20
40
60
80
100
120
140
160
180
log(σRMS
2)
Time [s]
348k
646k
940k
Figure D7: log
 σ2
RMS
 values for the Monitor Points of Figure 2.8 for the 200 rpm Tracer
simulation.
y
==PAGE:90==
E
Raw tracer data
Figure E1: Raw pH measuring data for tracer experiments performed in Section 3.1.
z
==PAGE:91==
F
Cube fermentation results
Fermentation simulation in the cube seen in Figure F5, which had the ﬁxed velocity proﬁle that
was used in Appendix A, a 5 s time step and the starting conditions and kinetics of Section 4.
0
1
2
3
4
5
6
7
0
1
2
3
4
5
6
Biomass [kg/m3]
Time [hr]
Matlab
Cube
Exp data
Figure F1: Biomass concentration comparison of fermentation simulation in cube with a 5 s
time step.
0
5
10
15
20
25
30
35
40
0
1
2
3
4
5
6
Lactic Acid[kg/m3]
Time [hr]
Matlab
Cube
Exp data
Figure F2: Lactic acid concentration comparison of fermentation simulation in cube with a 5 s
time step.
aa
==PAGE:92==
0
10
20
30
40
50
60
70
80
0
1
2
3
4
5
6
Lactose [kg/m3]
Time [hr]
Matlab
Cube
Exp data
Figure F3: Lactose concentration comparison of fermentation simulation in cube with a 5 s time
step.
5.8
6
6.2
6.4
6.6
6.8
7
0
1
2
3
4
5
6
pH
Time [hr]
MP 1
MP 2
MP 3
Figure F4: pH plot of measuring points (Figure F5) in the cube fermentation simulation with
a 5 s time step.
ab
==PAGE:93==
Figure F5: Measuring Points (MP) for the cubical system.
ac
==PAGE:94==
G
Matlab ﬁtted fermentation
0
1
2
3
4
5
6
7
0
1
2
3
4
5
6
Biomass [kg/m3]
Time [hr]
Matlab fitted
Exp data
Figure G1: Biomass concentration comparison of a ﬁtted Matlab kinetic model (line) with
tlag=0.38 hr and pHinit=6.83 and experimental data (dots).
0
5
10
15
20
25
30
35
40
0
1
2
3
4
5
6
Lactic Acid[kg/m3]
Time [hr]
Matlab fitted
Exp data
Figure G2: Lactic acid concentration comparison of a ﬁtted Matlab kinetic model (line) with
tlag=0.38 hr and pHinit=6.83 and experimental data (dots).
ad
==PAGE:95==
6
7
0
10
20
30
40
50
60
70
80
0
1
2
3
4
5
6
Lactose [kg/m3]
Time [hr]
Matlab fitted
Exp data
Figure G3: Lactose concentration comparison of a ﬁtted Matlab kinetic model (line) with
tlag=0.38 hr and pHinit=6.83 and experimental data (dots).
5.8
5.9
6
6.1
6.2
6.3
6.4
6.5
6.6
6.7
6.8
6.9
7
7.1
0
1
2
3
4
5
6
pH
Time [hr]
Matlab fitted
Exp data
Figure G4: pH comparison at Measuring Point 2 (Figure 2.8) of a ﬁtted Matlab kinetic model
(line) with tlag=0.38 hr and pHinit=6.83 and experimental data (dots).
ae
