==PAGE:1==
Master Thesis [30 ECTS]
Technical University of Denmark
Numerical investigation of industrial process
conditions in bacterial cultivations
In collaboration with Christian Hansen A/S
Johan Le Nepvou De Carfort
(s152922)
Kongens Lyngby 2021
==PAGE:2==
Dr. Eng. Klaus Pellicer Alborch
Specialized Bioprocesses, R&D
Chr Hansen A/S
Boege Allé 10-12
2970 Hoersholm - Denmark
Phone: +45 22 10 74 16
Email: DKKLPE@chr-hansen.com
www.chr-hansen.com
Ulrich Krühne, Assoc. Prof.
Department Chemical and Biochemical Engineering
Technical University of Denmark
Søltofts Plads, 229
2800 Kongens Lyngby, Denmark
Phone: +45 4525 2800
Email: kt@kt.dtu.dk
http://www.kt.dtu.dk
==PAGE:3==
Abstract
A numerical fluid dynamic model of a 17 [m3] bioreactor was constructed to investigate
industrial process conditions during lactic acid bacteria cultivation.
The primary
focus of the study was to quantify the pH spacial gradient in the tank, as well as the
effects on the resulting fermentation process. With the scope of simulating the pH
gradients in the bioreactor during fermentation, the numerical model should include
the mixing behaviour in the tank, the microbial growth leading to the acidification
of the system, as well as a model of the buffer system, in order to accurately predict
the pH.
A mixing simulation of the fermentation tank was performed in ANSYS CFX, with the
two studied impeller types, i.e. marine and rushton impeller. The rushton impeller
resulted in the lowest mixing time of 5-7 [s] compared to 32-35 [s] for the marine
impeller, depending on the turbulence model applied. The mixing simulation was
also performed with STARCCM+, which resulted in a comparable mixing profile for
the rushton impeller, and a different mixing profile for the marine impeller. Further
experimental validation of the model will indicate which solver provides the most
realistic solution.
The surface average wall shear was estimated between 28.7 and 36.7 [Pa] for the ma-
rine impeller and between 38.9 and 41.8 [Pa] for the rushton impeller, depending on
the turbulence model applied. However, the distribution of the wall shear on the im-
peller surface was different for the two impeller types, with the marine impeller being
more homogeneous, having the lowest maximum to average wall shear ratio, whereby
it is concluded the marine impeller is potentially less harmful to the microorganisms.
The buffer model was implemented to the mixing simulation to describe the pH in the
tank during a base pulse. Then the buffer model was combined with the microbial
kinetic model to describe the full behaviour of the fermenting system. The combined
model was successfully solved in MATLAB for the case of ideal mixing, however the
stiff nature of the mathematical system to be solved made the implementation of
the combined buffer and biokinetic model with the CFD model unsuccessful. Sev-
eral approaches were tested to solve the model without any successful outcome. As
an illustration to the limitations related with CFD and stiff mathematical systems,
possible adaptations to the model are discussed, that would facilitate the numerical
solving of the system.
==PAGE:4==
ii
==PAGE:5==
Preface
This Master thesis was performed at the Department of Chemical and Biochemical
Engineering at the Technical University of Denmark, in collaboration with Christian
Hansen A/S, Specialized Bioprocesses, R&D. The thesis is the outcome of the work
carried out from February 3rd 2021 to June 24th 2021 under the supervision of Klaus
Pellicer Alborch (Chr.
Hansen) and Ulrich Krühne (DTU), and is submitted as
fulfilment to the requirements for the degree of Master of Science in Chemical and
Biochemical Engineering.
Kongens Lyngby, June 24, 2021
Johan Le Nepvou De Carfort
==PAGE:6==
iv
==PAGE:7==
Acknowledgements
I has been a pleasure to perform my Master Thesis project at the chemical and bio-
chemical engineering department at the Technical University of Denmark, and fulfill
one of my life long goals.
I would like to express my sincere gratitude to my supervisor from Christian Hansen,
Klaus Pellicer Alborch, for the great guidance, support and knowledge he has pro-
vided me. Thank you for the interesting discussions we have had during the course
this project.
I would also like to express my gratitude to my supervisor from DTU, Ulrich Krühne,
for his council, expertise. Thank you for providing me with the opportunity of this
project.
Finally, I would like to thank Christian Hansen for making this project possible, and
for allowing me to on an interesting and industry relevant subject.
==PAGE:8==
vi
==PAGE:9==
Contents
Abstract
i
Preface
iii
Acknowledgements
v
Contents
vii
List of Figures
ix
List of Tables
xiii
Nomenclature
xv
1
Introduction
1
1.1
General Introduction . . . . . . . . . . . . . . . . . . . . . . . . . . . .
1
1.2
Case Presentation & Objectives . . . . . . . . . . . . . . . . . . . . . .
2
1.3
Fluid Dynamics and Transport equations
. . . . . . . . . . . . . . . .
2
1.3.1
Continuity and momentum equations
. . . . . . . . . . . . . .
2
1.3.2
Laminar and turbulent flow . . . . . . . . . . . . . . . . . . . .
5
1.3.3
Turbulence Models . . . . . . . . . . . . . . . . . . . . . . . . .
6
1.3.4
Transport of Species . . . . . . . . . . . . . . . . . . . . . . . .
9
1.4
Computational Fluid Dynamics . . . . . . . . . . . . . . . . . . . . . .
9
1.4.1
Geometry Sketching . . . . . . . . . . . . . . . . . . . . . . . .
10
1.4.2
Meshing . . . . . . . . . . . . . . . . . . . . . . . . . . . . . . .
11
1.4.3
Definition of the flow problem . . . . . . . . . . . . . . . . . . .
12
1.4.4
Solving and post processing . . . . . . . . . . . . . . . . . . . .
13
1.5
Bacterial Cultivation . . . . . . . . . . . . . . . . . . . . . . . . . . . .
16
1.5.1
Introduction to Fermentation Processes
. . . . . . . . . . . . .
16
1.5.2
Lactic Acid Bacteria Production
. . . . . . . . . . . . . . . . .
17
1.6
Mixing in Bioreactors
. . . . . . . . . . . . . . . . . . . . . . . . . . .
19
2
Materials & Method
23
2.1
Setup of the CFD model . . . . . . . . . . . . . . . . . . . . . . . . . .
23
2.2
Mesh study . . . . . . . . . . . . . . . . . . . . . . . . . . . . . . . . .
26
==PAGE:10==
viii
Contents
2.3
Alkali Mixing Simulation
. . . . . . . . . . . . . . . . . . . . . . . . .
35
2.4
Simulation of the Fermentation Process
. . . . . . . . . . . . . . . . .
38
3
Results & Discussion
41
3.1
Mixing Times and Flow Profiles . . . . . . . . . . . . . . . . . . . . . .
41
3.2
Shear stress . . . . . . . . . . . . . . . . . . . . . . . . . . . . . . . . .
46
3.3
Alkali Mixing Simulation
. . . . . . . . . . . . . . . . . . . . . . . . .
48
3.4
Fermentation Model . . . . . . . . . . . . . . . . . . . . . . . . . . . .
50
4
Conclusion
59
Bibliography
61
A
Final mesh
63
A.1 S2 Stator Mesh . . . . . . . . . . . . . . . . . . . . . . . . . . . . . . .
63
A.2 S3 Stator Mesh . . . . . . . . . . . . . . . . . . . . . . . . . . . . . . .
66
A.3 Marine Rotor Mesh . . . . . . . . . . . . . . . . . . . . . . . . . . . . .
68
A.4 Rushton Rotor Mesh . . . . . . . . . . . . . . . . . . . . . . . . . . . .
70
B
73
B.1
Acid/Base Kinetic Model
. . . . . . . . . . . . . . . . . . . . . . . . .
73
C
77
C.1 Mesh Study . . . . . . . . . . . . . . . . . . . . . . . . . . . . . . . . .
77
C.2 Time Step Study . . . . . . . . . . . . . . . . . . . . . . . . . . . . . .
79
D
Results
82
D.1 Flow profiles with the SST and Laminar flow models . . . . . . . . . .
83
D.2 Dimensionless Concentration Plots . . . . . . . . . . . . . . . . . . . .
87
D.3 Shear Stress . . . . . . . . . . . . . . . . . . . . . . . . . . . . . . . . .
89
D.4 STARCCM+ Simulation . . . . . . . . . . . . . . . . . . . . . . . . . .
91
D.5 Kinetic Model without pH Controller . . . . . . . . . . . . . . . . . . .
95
==PAGE:11==
List of Figures
1.1
Representation of the control volume of a fluid element, with entering and
exiting mass flows. Adapted from Versteeg et al.(3)
. . . . . . . . . . . .
3
1.2
Stationary flow profile between two plates, adapted from Doran (5, p.132)
4
1.3
Cross-sectional velocity profile in a laminar (left) and turbulent (right) flow
through a pipe. Adapted from (6, p. 54) . . . . . . . . . . . . . . . . . . .
6
1.4
Example of meshing of a cubic domain with (a) structured hexahedron
mesh and (b) unstructured tetrahedron mesh . . . . . . . . . . . . . . . .
11
1.5
Schematic representation of the different bioreactor setups. Adapted from
Canio et al. (14)
. . . . . . . . . . . . . . . . . . . . . . . . . . . . . . . .
17
1.6
Microscope picture of (a) Lactobacillus Plantarum and (b)
Lactococcus
Piscium, adapted from Arasu et al. (15) and Saraoui et al. (16), respectively. 18
1.7
(a) Axial and (b) Radial Mixing Patterns, Adapted from (18, p. 146)
. .
19
2.1
Geometry of the Bioreactor sketched in SOLIDWORKS, with the bound-
aries and domains indicated . . . . . . . . . . . . . . . . . . . . . . . . . .
24
2.2
Geometry of the (a) Marine and (b) Rushton impellers . . . . . . . . . . .
24
2.3
Resulting flow profile produced by the rotating marine impeller (US6 meshe)
on (a) XY- plane, (b) XZ- plane, Contour plot (right) is the absolute velocity
magnitude in all directions, and vector field (left) is the velocity projection
on visualised plane . . . . . . . . . . . . . . . . . . . . . . . . . . . . . . .
28
2.4
Resulting flow profile produced by the rotating rushton impeller (US6 meshe)
on (a) XY- plane, (b) XZ- plane, Contour plot (right) is the absolute ve-
locity magnitude in all directions, and vector field (left) is the velocity
projection on visualised plane . . . . . . . . . . . . . . . . . . . . . . . . .
28
2.5
Maximum velocity magnitude [m/s] in the rotor domain as function of
number of mesh elements
. . . . . . . . . . . . . . . . . . . . . . . . . . .
29
2.6
Maximum Shear Stress in the rotor domain as function of number of mesh
elements . . . . . . . . . . . . . . . . . . . . . . . . . . . . . . . . . . . . .
29
2.7
Velocity profile along cut-line (red line in figure 2.3), Marine Impeller
. .
30
2.8
Velocity profile along cut-line (red line in figure 2.3), Rushton Impeller . .
31
2.9
Position of the source point and monitoring points (MP) for the mixing
simulations in the bioreactor, (a) side view and (b) top view. . . . . . . .
31
2.10 log(σ2) as function of time, for different meshes, with Rushton impeller
.
32
2.11 log(σ2) as function of time, for different meshes, with Marine impeller . .
33
==PAGE:12==
x
List of Figures
2.12 log(σ) as function of time, for different time steps, with Rushton impeller
34
2.13 log(σ) as function of time, for different time steps, with Marine impeller .
34
3.1
Resulting mixing profiles in the bioreactor using the k −ϵ model, with
Marine Impeller, (a) XY plane, (b) YZ plane, (c) XZ plane. Contour plot
(right) is the absolute velocity magnitude in all directions, and vector field
(left) is the velocity projection on XY plane . . . . . . . . . . . . . . . . .
42
3.2
Resulting mixing profiles in the bioreactor using the k −ϵ model, with
Rushton Impeller, (a) XY plane, (b) YZ plane, (c) XZ plane. Contour plot
(right) is the absolute velocity magnitude in all directions, and vector field
(left) is the velocity projection on XY plane . . . . . . . . . . . . . . . . .
43
3.3
log(σ2) plot of the tracer mixing as function of time, at the four monitor-
ing points, with Marine impeller, based on the concentration profiles from
figure D.5 . . . . . . . . . . . . . . . . . . . . . . . . . . . . . . . . . . . .
44
3.4
log(σ2) plot of the tracer mixing as function of time, at the four monitoring
points, with Rushton impeller, based on the concentration profiles from
figure D.6 . . . . . . . . . . . . . . . . . . . . . . . . . . . . . . . . . . . .
44
3.5
Cumulative Distribution of Wall Shear on the Impeller Surface . . . . . .
47
3.6
pH as function of time, at the four monitoring points, with Marine impeller.
Dashed black line represents the target pH. . . . . . . . . . . . . . . . . .
49
3.7
pH as function of time, at the four monitoring points, with Rushton impeller.
Dashed black line represents the target pH. . . . . . . . . . . . . . . . . .
49
3.8
Concentration profiles of Biomass (X), Substrate (S), lactic acid and lactate
during the fermentation, Simulated in MATLAB for the case of ideal mixing 51
3.9
Concentration profiles of sodium and lactate during the fermentation, Sim-
ulated in MATLAB for the case of ideal mixing . . . . . . . . . . . . . . .
51
3.10 pH profile during the fermentation, pH control setpoint at pH 6, Simulated
in MATLAB for the case of ideal mixing . . . . . . . . . . . . . . . . . . .
52
3.11 Cubic one element mesh used for the implementation of the kinetic model
in CFX, including the source point and a monitoring point
. . . . . . . .
53
3.12 Concentration profiles of Biomass (X), Substrate (S), lactic acid and lactate
during the fermentation, thin line : MATLAB simulation, and the thick line
: CFX simulation . . . . . . . . . . . . . . . . . . . . . . . . . . . . . . . .
55
3.13 Concentration profiles of sodium and lactate during the fermentation, thin
line : MATLAB simulation, and the thick line : CFX simulation
. . . . .
55
3.14 pH profile during the fermentation, pH control setpoint at pH 6 . . . . . .
56
3.15 OH– concentration profile during the fermentation, logarithmic y axis . .
56
A.1 S2 Stator Mesh, front view
. . . . . . . . . . . . . . . . . . . . . . . . . .
63
A.2 S2 Stator Mesh, back view . . . . . . . . . . . . . . . . . . . . . . . . . . .
64
A.3 S2 Stator Mesh, top view
. . . . . . . . . . . . . . . . . . . . . . . . . . .
64
A.4 S2 Stator Mesh, close up view of interface . . . . . . . . . . . . . . . . . .
65
A.5 S3 Stator Mesh, front view
. . . . . . . . . . . . . . . . . . . . . . . . . .
66
A.6 S3 Stator Mesh, back view . . . . . . . . . . . . . . . . . . . . . . . . . . .
67
==PAGE:13==
List of Figures
xi
A.7 S3 Stator Mesh, top view
. . . . . . . . . . . . . . . . . . . . . . . . . . .
67
A.8 S3 Stator Mesh, close up view of interface . . . . . . . . . . . . . . . . . .
68
A.9 Marine rotor Mesh, front view
. . . . . . . . . . . . . . . . . . . . . . . .
68
A.10 Marine rotor Mesh, top view
. . . . . . . . . . . . . . . . . . . . . . . . .
69
A.11 Marine rotor Mesh, close up view of impeller
. . . . . . . . . . . . . . . .
69
A.12 Rushton rotor Mesh, front view . . . . . . . . . . . . . . . . . . . . . . . .
70
A.13 Rushton rotor Mesh, top view . . . . . . . . . . . . . . . . . . . . . . . . .
70
A.14 Rushton rotor Mesh, close up view of side of the impeller
. . . . . . . . .
71
A.15 Rushton rotor Mesh, close up view of top of the impeller . . . . . . . . . .
71
C.1 Dimensionless tracer concentration as function of time, at the four moni-
toring points, with Marine impeller, full lines are results from the S1 mesh,
dashed line are the results from the S2 mesh and dotted line are the results
from the S3 mesh.
. . . . . . . . . . . . . . . . . . . . . . . . . . . . . . .
77
C.2 Dimensionless tracer concentration as function of time, at the four monitor-
ing points, with Rushton impeller, full lines are results from the S1 mesh,
dashed line are the results from the S2 mesh and dotted line are the results
from the S3 mesh.
. . . . . . . . . . . . . . . . . . . . . . . . . . . . . . .
78
C.3 Dimensionless tracer concentration as function of time, at the four monitor-
ing points, with Marine impeller, full lines are results using a timestep of
1 [s], dashed lines are the results using a timestep of 0.5 [s], dashed/dotted
lines are the results using a timestep of 0.25 [s] and dotted lines are the
results using a timestep of 0.1[s]. . . . . . . . . . . . . . . . . . . . . . . .
79
C.4 Dimensionless tracer concentration as function of time, at the four monitor-
ing points, with Rushton impeller, full lines are results using a timestep of
1 [s], dashed lines are the results using a timestep of 0.5 [s], dashed/dotted
lines are the results using a timestep of 0.25 [s] and dotted lines are the
results using a timestep of 0.1[s]. . . . . . . . . . . . . . . . . . . . . . . .
80
D.1 Resulting mixing profiles in the bioreactor using the SST model, with Ma-
rine Impeller, (a) XY plane, (b) YZ plane, (c) XZ plane. Contour plot
(right) is the absolute velocity magnitude in all directions, and vector field
(left) is the velocity projection on XY plane . . . . . . . . . . . . . . . . .
83
D.2 Resulting mixing profiles in the bioreactor using the laminar flow model,
with Marine Impeller, (a) XY plane, (b) YZ plane, (c) XZ plane. Contour
plot (right) is the absolute velocity magnitude in all directions, and vector
field (left) is the velocity projection on XY plane . . . . . . . . . . . . . .
84
D.3 Resulting mixing profiles in the bioreactor using the SST model, with Rush-
ton Impeller, (a) XY plane, (b) YZ plane, (c) XZ plane. Contour plot (right)
is the absolute velocity magnitude in all directions, and vector field (left)
is the velocity projection on XY plane . . . . . . . . . . . . . . . . . . . .
85
==PAGE:14==
D.4 Resulting mixing profiles in the bioreactor using the laminar flow model,
with Rushton Impeller, (a) XY plane, (b) YZ plane, (c) XZ plane. Contour
plot (right) is the absolute velocity magnitude in all directions, and vector
field (left) is the velocity projection on XY plane . . . . . . . . . . . . . .
86
D.5 Dimensionless tracer concentration as function of time, at the four mon-
itoring points, with Marine impeller, full lines are results from the k −ϵ
model, dashed line are the results from the SST model and dotted line are
the results from the Laminar Flow model. . . . . . . . . . . . . . . . . . .
87
D.6 Dimensionless tracer concentration as function of time, at the four moni-
toring points, with Rushton impeller, full lines are results from the k −ϵ
model, dashed line are the results from the SST model and dotted line are
the results from the Laminar Flow model. . . . . . . . . . . . . . . . . . .
88
D.7 Wall Shear on the Surface of the Marine Impeller, using the k −ϵ model,
Contour plot range : 0 [Pa] - 290 [Pa]
. . . . . . . . . . . . . . . . . . . .
89
D.8 Wall Shear on the Surface of the Marine Impeller, using the SST model,
Contour plot range : 0 [Pa] - 290 [Pa]
. . . . . . . . . . . . . . . . . . . .
89
D.9 Wall Shear on the Surface of the Rushton Impeller, using the k −ϵ model,
Contour plot range : 0 [Pa] - 290 [Pa]
. . . . . . . . . . . . . . . . . . . .
90
D.10 Wall Shear on the Surface of the Rushton Impeller, using the SST model,
Contour plot range : 0 [Pa] - 290 [Pa]
. . . . . . . . . . . . . . . . . . . .
90
D.11 Mixing profile resulting from the STARCCM+ simulation with marine im-
peller and k −ϵ turbulence model, XY plane, Contour plot (right) is the
absolute velocity magnitude in all directions, and vector field (left) is the
velocity projection on XY plane . . . . . . . . . . . . . . . . . . . . . . . .
91
D.12 Mixing profile resulting from the STARCCM+ simulation with marine im-
peller and k −ϵ turbulence model, XZ plane, Contour plot (right) is the
absolute velocity magnitude in all directions, and vector field (left) is the
velocity projection on XZ plane . . . . . . . . . . . . . . . . . . . . . . . .
92
D.13 Mixing profile resulting from the STARCCM+ simulation with rushton
impeller and k −ϵ turbulence model, XY plane, Contour plot (right) is the
absolute velocity magnitude in all directions, and vector field (left) is the
velocity projection on XY plane . . . . . . . . . . . . . . . . . . . . . . . .
93
D.14 Mixing profile resulting from the STARCCM+ simulation with rushton
impeller and k −ϵ turbulence model, XZ plane, Contour plot (right) is the
absolute velocity magnitude in all directions, and vector field (left) is the
velocity projection on XZ plane . . . . . . . . . . . . . . . . . . . . . . . .
94
D.15 Concentration profiles of Biomass (X), Substrate (S), lactic acid and lactate
during the fermentation, Simulated in MATLAB for the case of ideal mixing,
full lines are results with pH controller ON and dashed lines are results with
pH controller OFF. . . . . . . . . . . . . . . . . . . . . . . . . . . . . . . .
95
D.16 Concentration profiles of sodium and lactate during the fermentation, Sim-
ulated in MATLAB for the case of ideal mixing, full lines are results with
pH controller ON and dashed lines are results with pH controller OFF. . .
96
==PAGE:15==
List of Tables
xiii
D.17 pH profile during the fermentation, pH control setpoint at pH 6, Simulated
in MATLAB for the case of ideal mixing, full lines are results with pH
controller ON and dashed lines are results with pH controller OFF. . . . .
97
List of Tables
2.1
Geometry Parameters of the Bioreactor given by Christian Hansen . . . .
25
2.2
Impeller configuration . . . . . . . . . . . . . . . . . . . . . . . . . . . . .
25
2.3
Number of nodes in the different meshes, S for structured and US for un-
structured . . . . . . . . . . . . . . . . . . . . . . . . . . . . . . . . . . . .
26
2.4
Model Parameters and Boundary conditions for the Bioreactor Model
. .
26
2.5
Simulation Parameters for the Bioreactor Mesh Study, (ATS) for Accumu-
lated Time Step
. . . . . . . . . . . . . . . . . . . . . . . . . . . . . . . .
27
2.6
Mixing time to reach 95% homogeneity for the different stator meshes . .
33
2.7
Selected meshes to be used for the bioreactor simulation (with number of
mesh elements) . . . . . . . . . . . . . . . . . . . . . . . . . . . . . . . . .
33
2.8
Mixing time to reach 95% homogeneity and average Courant Number for
different time steps . . . . . . . . . . . . . . . . . . . . . . . . . . . . . . .
35
2.9
Kinetic Model for the Acid/Base Reactions
. . . . . . . . . . . . . . . . .
36
2.10 Initial conditions for the buffer model, in terms of total concentration of
acid/base pair, adapted from Spann (22)
. . . . . . . . . . . . . . . . . .
36
2.11 Simulation Parameters for the Alkali Mixing Simulations
. . . . . . . . .
37
2.12 Parameters and Initial Conditions used in the Microbial Kinetic Model . .
39
2.13 Simulation Parameters for the Fermentation simulation
. . . . . . . . . .
40
3.1
Wall Shear on the Surface of the Impeller . . . . . . . . . . . . . . . . . .
46
==PAGE:16==
xiv
==PAGE:17==
Nomenclature
Acronym
ATS
Accumulated Time Step
CFD
Computational Fluid Dynamics
RMS
Root Mean Square
SS
Steady state
Symbols
δij
Kronecker Delta
[−]
ϵ
Energy Dissipation Rate
[m2/s3]
κ
Compressibility Factor
[−]
Re
Reynold’s Number
[−]
DAB
Diffusion Coeﬀicient of Specie A in medium B
[m2/s]
µ
Viscosity
[Pa · s]
µt
Turbulent Viscosity
[Pa · s]
µeff
Effective Viscosity
[Pa · s]
∇
Vector differential operator
[−]
ω
Turbulent Frequency
[s−1]
i
Time Average of i
[−]
v
Time Average Velocity
[m/s]
ρ
Density
[kg/m3]
τ
Stress Tensor
[Pa]
τij
Stress component acting in the j- direction
on a surface normal to the i- direction
[Pa]
==PAGE:18==
xvi
List of Tables
C∆
Courant Number
[−]
Di
Impeller Diameter
[m]
k
Turbulent Kinetic Energy
[J/kg]
Ni
Impeller Rotational Speed
[rev/s]
P
Power Requirement
[W/m3]
p
Pressure
[Pa]
RA
Production rate of Specie A
[mol/(m3 · s)]
SM
External force term
[N/m3]
t
Time
[s]
tm
Mixing Time
[s]
v
Velocity
[m/s]
v′
Turbulent fluctuations in Velocity
[m/s]
Vtank
Liquid Vomule inside the tank
[s]
wA
Concentration of Specie A
[mol/m3]
Subscripts
x
x- direction
y
y- direction
z
z- direction
==PAGE:19==
CHAPTER 1
Introduction
1.1
General Introduction
In the transition towards a sustainable society, solutions to reduce environmental im-
pact while maintaining life quality and economical growth are essential. Historically,
greenhouse gas emissions have been tightly correlated with economical growth. In
addition, the growing population and rising of life quality leads to an increase in the
global resource and energy demand. Hence the decoupling of greenhouse gas emis-
sions and economical growth is of utmost importance to reach a sustainable society.
Moreover, the contribution of human activity to global warming has an increasing
attention in terms of political legislation at national scales, e.g. taxation, ban of cer-
tain materials/processes; and at international scales, e.g. Paris Climate Agreement.
As a solution to this problem, new technologies offer alternatives to the traditional
methods, in terms of energy and material production, allowing for a decoupling of
economic activity and environmental footprint (1, 2).
Biotechnology is considered as one of the sustainable technologies contributing to the
ecological transition. Fermentation based manufacturing has reviled new perspectives
within several industries such as food and pharma, and is also gaining attention as a
substitute to fossil fuels, e.g. energy and bulk chemicals production. However being
an immature technology, many challenges relates to the industrial scales are yet to be
solved. Optimisation of the productions at larger scales is essential for the technology
to be competitive with traditional productions. And increasing the scale will increase
the benefits from the economy of scale, also improving the competitiveness of the
process.
One of the key challenges with industrial bioproductions is maintaining
homogeneous and desired process conditions throughout the fermenting volume.
In parallel, the exponential progress of computational power allows for more and more
complex computer simulations. Computer simulations have the advantage of being
more simple, safe and cheap with regards to actual experiments, especially in the
production scale. In this way, computer simulations work as a virtual laboratory to
explore industrial solutions.
==PAGE:20==
2
1 Introduction
1.2
Case Presentation & Objectives
In this project, Computational fluid dynamics will be used to create a numerical
model of a bioreactor, used by Christian Hansen A/S to prepare start-up cultures of
Lactic Acid Bacteria, at the Roskilde production site. The company has noticed a
yield drop when performing fermentations at larger scales compared to the smaller
lab scale fermentations. This is suggesting the industrial process conditions have a
negative impact on the desired microbial activity.
There are many potential rea-
sons explaining the discrepancy between the small and industrial scale, however it
is believed ineﬀicient mixing leading to pH gradients is the issue based on previous
investigations. The microorganisms used in the production are known to be pH sen-
sitive, so it is reasonable to suggest that the pH gradients may have an effect on
the microbial growth and activity. The occurrence of gradients may also leads to
inaccurate control of the process which is essential to maintain the desired process
conditions throughout the fermentation.
So the numerical model of the bioreactor will be used to investigate the magnitude of
potential pH gradients occurring during mixing, as well as effects on the fermentation
metrics. The goal of the study is to propose potential optimisations to the fermen-
tation process, based on the results from the numerical model. Therefore, different
impeller types (Rushton and Marine) and operational conditions are investigated, and
compared.
1.3
Fluid Dynamics and Transport equations
1.3.1
Continuity and momentum equations
Fluid dynamics, or the study of fluid motion, is an important field of science already
studied in the antiquity (e.g. Archimedes law), but only in the last centuries has it
gained in attention due to the discovery of its multiple applications. The work of many
scientists, such as Isaac Newton (1642-1726) and Blaise Pascal (1623-1662) has led to
the understanding of fluids we have today. Mathematical models have been proposed
to describe the motion of fluids, such as Daniel Bernoulli’s (1700-1782) Mechanical
Energy Balance (or Bernoulli’s Equation).
Nowadays, the continuity and momentum equations are the most applied differential
equations to describe fluid motion. The continuity equation (1.1) is based on the prin-
ciple of mass conservation: In a control volume (figure 1.1), the mass accumulation
is equal to the mass in minus the mass out. It is more generally written as (4) :
Eq. 1.1 : Continuity Equation (4)
∂ρ
∂t = −∇· (ρv)
(1.1)
==PAGE:21==
1.3 Fluid Dynamics and Transport equations
3
Figure 1.1: Representation of the control volume of a fluid element, with entering and exiting
mass flows. Adapted from Versteeg et al.(3)
ρ being the fluid density, t being time and v being the velocity vector. ∇is the vector
differential operator. The fluid compressiblility is a measure of how much the density
of a fluid is sensitive to pressure changes. All fluids are compressible to a different
extent, and at low pressures, some fluids can be considered incompressible (for exam-
ple water and most liquids) In this project, all fluids are considered incompressible
i. e. constant density. The constant density assumption implies that free convection
can not be accounted for, since driving force relies on the principle of expansion and
density gradients. Regarding the equation of continuity, assuming constant density
simplifies the equation :
0 = ∇· v
(1.2)
Or in developed form :
0 = ∂vx
∂x + ∂vy
∂y + ∂vz
∂z
(1.3)
The equation of continuity for incompressible flow (equation (1.2)) can also be in-
terpreted as the divergence of the resulting velocity vector field will be zero at all
point. The Momentum Equation, also known as the Navier-Stokes Equation (1.4), is
a derivation of Newtons Second Law, i. e. the resulting force on an object is equal to
its mass times its acceleration, taking into account pressure and viscous forces.
Eq. 1.4 : Navier-Stokes Equation (4)
ρ
(∂v
∂t + v(∇· v)
)
= −∇p + µ∇2v + SM
(1.4)
p being the absolute pressure, µ being the fluid viscosity and SM being the sum of all
external forces per unit of volume acting on the fluid, such as gravity represented by
the term ρg where g denotes the gravitational acceleration vector, or a moving object
providing momentum to the fluid. (4).
==PAGE:22==
4
1 Introduction
The left side of equation (1.4) represents the mass times acceleration term, here as
density times acceleration in time and space. The right side of the equation are the
different forces acting on the fluid, the pressure forces, viscous forces and external
forces.
Figure 1.2: Stationary flow profile between two plates, adapted from Doran (5, p.132)
The viscosity of a fluid is a measure of its resistance to movement, i. e. how well the
fluid sticks together. The concept of viscosity was first introduced by Newton’s Law
of Viscosity (equation (1.6)), stating that ”shearing force per unit area is proportional
to the negative of the velocity gradient”, with the proportionality coeﬀicient being
the viscosity (4, p. 12). For the specific system of a fluid between two parallel plates,
where one of the plates is moving relative to the other (see figure 1.2), the velocity
gradient is related to the applied forces on the moving plate via the following equation
at steady state :
F
A = µV
Y
(1.5)
In a continuous form:
τyx = −µdvx
dy
(1.6)
This linear relation between shear force and velocity gradient only concerns the so-
called Newtonian fluids (fluids that follow Newton’s Law of Viscosity), generally con-
sidered as fluids with molecular weights below 5000 [g/mol] (4, p. 13). Indeed, some
fluids do not follow the linear relation between shear force and velocity gradient, the
so-called Non-Newtonian fluids. Models such as the Power Law have been developed
to account for the non constant viscosity of Non-Newtonian fluids. However in this
project, all fluids are considered Newtonian, so having a constant viscosity.
Newton’s Law of Viscosity was derived from a very specific case (Plate experiment, SS,
vx = vx(y), vy = vz = 0), and a more general form was derived in a 3D formulation
(4, p. 19):
τ = −µ
(
∇v + (∇v)†)
+ (2
3µ −κ)(∇· v)δ
(1.7)
==PAGE:23==
1.3 Fluid Dynamics and Transport equations
5
For incompressible fluids, equation (1.7) can be reduced to equation (1.8) (∇· v = 0).
τ = −µ
(
∇v + (∇v)†)
(1.8)
The letter τ designs the stress tensor, can be interpreted as the momentum flux
tensor, or τij the flux of i-momentum in the j-direction. It can be thought of as the
momentum flux from a high velocity region to a low velocity region, as the faster
moving region pulls the adjacent slower moving region.
τ =


τxx
τxy
τxz
τyx
τyy
τyz
τzx
τzy
τzz


(1.9)
τij = −µ
(∂vj
∂xi
+ ∂vi
∂xj
)
(1.10)
This final expression for the viscous forces in a fluid was the expression used for
the derivation of the Navier-Stokes equation for incompressible fluids from Newton’s
Second Law.
1.3.2
Laminar and turbulent flow
Writing up the Navier-Stokes Equation for a steady state system in a dimensionless
form, with l0 as length scale, v0 as velocity scale, and the pressure scale of p0 = µv0
lo
results in :
ρl0v0
µ
(ˆv · ˆ∇ˆv) = −ˆ∇ˆp + ˆ∇2ˆv
(1.11)
Where ˆv is the dimensionless velocity defined as v/v0, ˆp is the dimensionless pressure
defined as p/p0 and ˆ∇is the differential operator in dimensionless space. The first
term in equation (1.11) can be identified as the Reynolds Number, giving the scale to
the Navier-Stokes Equation which implies that fluids behave differently at different
scales.
Re = ρlovo
µ
(1.12)
The dimensionless Reynolds Number is usually referred to as the ratio of inertial forces
to the viscous forces in the fluid. Laminar flow is considered as ordered flow where
the streamlines are parallel and the fluid behaves as adjacent fluid layers between
which momentum is diffused, through viscosity. Contrarily, turbulent flow behaves in
a chaotic way, and the velocity vector at a specific point in the fluid may not point
in the direction of the free stream. Rotating vortices (or eddies) develop in the fluid,
and dissipate to smaller scales to become viscous heat. Laminar flow occurs at low
Reynolds number and turbulent flow patterns occur at high Reynolds Number.
==PAGE:24==
6
1 Introduction
Figure 1.3: Cross-sectional velocity profile in a laminar (left) and turbulent (right) flow
through a pipe. Adapted from (6, p. 54)
For fluid systems with Reynolds Number below 1500, the flow is considered laminar.
Up to 3000, the flow regime tends towards turbulent. And above 3000, the flow is
considered completely turbulent (6, p. 55).
Although, the flow regime (laminar/turbulent) depends on the type of dynamic sys-
tem, and how the Reynolds Number is defined.
For instance, considering a flow
through a pipe, the pipe hydraulic diameter is used as a length scale, and the mean
velocity of the fluid as velocity scale. For a stirred tank, the impeller diameter is
used as length scale and the impeller tip speed as velocity scale. This last example
illustrates that the flow regime (laminar / turbulent) can not be determined in a
universal way from the Reynolds Number as for example here, the flow regime not
only depends on the impeller size and speed, but also the rest of the tank geometry
(e.g. baffles, see section 1.6: Mixing in Bioreactors). So there is a specific correlation
between Re and flow regime for each specific system. For stirred tanks, the Reynolds
number is typically expressed as (5, p. 130):
Re = NiD2
i ρ
µ
(1.13)
Where Ni is the rotational speed [rev/s] and Di the impeller diameter [m]. Due to the
chaotic nature of turbulent flow, it is more complex to model compared to laminar
flow. Modeling every eddy in the flow requires an extremely fine grid resolution. This
may be feasible for some simple systems, but for general use would require too many
calculations. Therefore, alternatives have been proposed to modify the momentum
equations in order to model the turbulence, instead of resolving it.
1.3.3
Turbulence Models
As mentioned in the previous section, with an extremely fine discretization of the
Navier-Stokes, one could theoretically resolve all scales in both time and space. This
approach is called Direct Numerical Simulations (DNS), and has the benefit of provid-
ing very good and realistic results, though it is often too expensive computationally
even for simple geometries, making this approach limited in its applications.
==PAGE:25==
1.3 Fluid Dynamics and Transport equations
7
An other approach was introduces by Osborn Reynolds in 1895, to model the turbu-
lence by decomposing the velocity into the time average and the turbulent fluctuations.
The so-called Reynolds Average Navier-Stokes or RANS model (7).
Eq. 1.14 : Reynolds Decomposition of the velocity (7)
v(x, t) = v(x) + v′(x, t)
(1.14)
¯v being the mean component or time averaged component and v′ being the fluctuating
component caused by turbulence. Then the decomposed velocity is inserted into the
continuity equation (1.2) and Navier-Stokes equation (1.4) and time averaged, giving
:
0 = ∂vx
∂x + ∂vy
∂y + ∂vz
∂z + ∂v′
x
∂x + ∂v′
y
∂y + ∂v′
z
∂z
(1.15)
The time average of the fluctuating components are by definition zero, giving :
0 = ∂¯vx
∂x + ∂¯vy
∂y + ∂¯vz
∂z
(1.16)
And when inserted into the x- component of the Navier-Stokes equations :
ρ
(Dvx
Dt
)
= −∂p
∂x + µ
(∂2vx
∂x2 + ∂2vx
∂y2 + ∂2vx
∂z2
)
+ Sx −ρ
[
∂v′xv′x
∂x
+ ∂v′xv′y
∂y
+ ∂v′xv′z
∂z
]
(1.17)
The last term of the above equation represents the Reynolds Stresses, the stresses
imposed on the fluid by turbulence.
These Reynolds Stresses can not be derived
from the flow directly, on the other hand models have been proposed to estimate the
Reynolds Stresses.
The Eddy Viscosity Model introduced by Boussinesq (1877) is a two parameter model
used to determine the Reynolds Stresses (3). This model considers the turbulence as
an additional contribution to the viscosity, the turbulent viscosity, that together with
the fluid viscosity form the ”effective” viscosity. This is based on the assumption that
turbulence on smaller scales act as viscosity. Effectively, the Eddy viscosity model
estimates the Reynolds Stresses based on the mean flow and the two turbulence
parameters.
Eq. 1.18 : Eddy Viscosity Model (3)
−ρv′
iv′
j = µt
( ∂vi
∂xj
+ ∂vj
∂xi
)
−2
3δijρk
(1.18)
==PAGE:26==
8
1 Introduction
µt being the turbulent viscosity (first parameter), δij being Kronecker delta (or Direct
Delta Function, δij=1 if i = j and δij=0 if i ̸= j) and k being the turbulent kinetic
energy (second parameter).
Eq. 1.19 : Turbulent Kinetic Energy (3)
k = 1
2(v′2
x + v′2
y + v′2
z )
(1.19)
The eddy viscosity model equation (1.18) can then be inserted into equation (1.17).
ρ
(∂v
∂t + v(∇· v)
)
= −∇p −2
3ρ∇k + ∇· (µeff)∇v + SM
(1.20)
Where µeff = µ + µt.
The turbulent viscosity and kinetic energy were at first
estimated as constants, now several models have been proposed to estimate µt, such
as the k−ϵ model, the k−ω model and the Shear Stress Transport (SST) model. The
k −ϵ uses the turbulent kinetic energy k and the energy dissipation rate ϵ to estimate
the µt according to equation (1.22). The k −ω uses the turbulent kinetic energy k
and the turbulent frequency ω to estimate the µt according to equation (1.23). The
turbulent kinetic energy, the energy dissipation rate and the turbulent frequency are
related to each other according to equation (1.24)(3, 8).
ϵ = ρ
µ
( ∂vi
∂xi
)2
(1.21)
µt = 0.09ρk2
ϵ
(1.22)
µt = ρ k
ω
(1.23)
ϵ = kω
(1.24)
Moreover, the k −ϵ and the k −ω models add two governing equations to the overall
model. For the k −ϵ model, the two additional equation describe k and ϵ :
∂(ρk)
∂t
+ ∇· (ρkv) = ∇· [(µ + µt)∇k] + Pk −ρϵ
(1.25)
∂(ρϵ)
∂t
+ ∇· (ρϵv) = ∇· [(µ + µt
1.3)∇ϵ] + 1.44Pk
k
−1.92ρϵ2
k
(1.26)
And for the k −ω model, the two additional equations describe k and ω :
∂(ρk)
∂t
+ ∇· (ρkv) = ∇· [(µ + µt
2 )∇k] + Pk −0.09ρkω
(1.27)
∂(ρω)
∂t
+ ∇· (ρωv) = ∇· [(µ + µt
2 )∇ω] + 5ω
9k Pk −0.075ρω2
(1.28)
==PAGE:27==
1.4 Computational Fluid Dynamics
9
Where for both models :
Pk = 1
2µtSij · Sij
(1.29)
Sij = ∂vj
∂xi
+ ∂vi
∂xj
(1.30)
The k −ϵ model is well suited for resolving turbulence in the free stream, whereas the
k −ω model is better at predicting the turbulence near walls, especially curved walls,
where adverse pressure gradients and flow separations may occur. The Shear Stress
Transport (SST) model is a combination of the two models, having the advantages of
the k −ω model near the walls and of the k −ϵ in the free stream (8–10).
1.3.4
Transport of Species
In the same way as for momentum and total flow, a mass balance of a specie can
be performed over the fluid control volume (figure 1.1).
Such a mass balance in
an incompressible fluid is shown in equation (1.31) (4). This equation considers the
transport of the specie with convection and diffusion. A reaction term is also included
to account for eventual reactions taking place, producing or consuming the specie.
Eq. 1.31 : Equation of Continuity for Specie A in terms of ωA, for Constant Density and
Diffusion Coeﬀicient (4)
ρ
[dωA
dt + (v · ∇ωA)
]
= ρDAB∇2ωA + rA
(1.31)
wA being the concentration of specie A, DAB the kinematic diffusion coeﬀicient of
specie A in medium B and ra the production rate of specie A. The convection term
(ρ(v · ∇ωA)) accounts for the species entering and leaving the control volume along
with the fluid flow. The Diffusive term (ρDAB∇2ωA) accounts for the diffusion of the
specie in and out of the control volume, according to Fick’s law of Diffusion. The first
term (ρ dωA
dt ) is the accumulation term, accounting for changes in time. Within the
field of computational fluid dynamics, such species are often referred to as Additional
Variables.
1.4
Computational Fluid Dynamics
Computational Fluid Dynamics, or CFD, is a method to find numerical solutions
to the governing equations of fluid dynamics. As mentioned in the previous section
(section 1.3), models for fluid dynamics have been proposed. The issue is that those
equations can be solved analytically, only for a few simple systems. So here, the
power of numerical solvers can play an important role. Indeed, it is possible to solve
==PAGE:28==
10
1 Introduction
the model equations numerically for any given geometry.
A numerical solution is a solution to the discretized form of the model equations. The
model equations are discretized both in the space and time dimensions, transforming
the partial differential equations to sets of algebraic equations. In this way, comput-
ers can be used to solve all the algebraic equations and provide a solution to the
discretized system.
The time dimension is discretized into time steps, meaning the time interval over
which the equations are desired to be solved is divided into time steps, where at each
time step the equations are solved. This means that more time steps, means more
equations and larger computational demand. The space dimensions are discretized
into volume elements, meaning the fluid domain is divided into smaller volume ele-
ments within which the equations are averaged and the flow variables are constant
(e.g. pressure, velocity vector..). This process is called the meshing, and is an essen-
tial part of CFD as the solution much depends on how the equations were discretized
(3).
Finally, when discretizing a flow problem with respect to both space and time, an
important parameter to consider is the Courant Number.
Eq. 1.32 : Courant Number Definition (11)
C∆= U∆t
∆x
(1.32)
U being the fluid velocity at the space element, ∆x the space interval and ∆t the time
interval. The Courant number is a measure of how much information (U) traverses a
volume element (∆x) in a given time step (∆t). This means if the Courant number
greater than one, information is moving through the fluid domain more than one
volume element each time step (11).
1.4.1
Geometry Sketching
In this fist step, the geometry of the simulated fluid is to be constructed. Only the
volume where some kind of transport is to be simulated (e.g. momentum, specie,
heat). So typically, solid parts are only sketched if heat transfer through the material
is to be modeled. For example, considering a flow through a pipe, if only the fluid
flow is simulated, the pipe itself is not needed, and only the interior fluid volume is
sketched. But in the case where the heat loss through the pipe is to be simulated, an
additional geometry volume representing the pipe should be sketched.
==PAGE:29==
1.4 Computational Fluid Dynamics
11
1.4.2
Meshing
The mesh construction is an essential part of a CFD simulation as it dictates how
the model equations are to be solved. Essentially, the volume of the geometry is
discretized into smaller sub-volumes, called mesh elements or cells. In each element,
the model equations are to be solved in a discretized form. So the smaller the cells,
the finer the resolution. On the other hand, more cells means more equations to be
solved and increases the computational demand. A higher computational demand
means longer computational time, or requires a more powerful computer.
So the goal when constructing a mesh is to find the right balance between accuracy
of the results and computational demand. This balance is typically set by the user
or the person interested in the results, as it depends on the goal of using a CFD tool.
Some might be interested in having very accurate results, no matter the time it takes.
But in many cases, time is a concern and for CFD to be feasible, results should be
available within a certain time frame. This is particularly the case in the industry,
where the cost of having an engineer working on the project using an often expensive
CFD software, is taken into account.
In a three dimensional geometry, cell elements can have several shapes such as tetra-
hedrons (4 sided), pyramids (5 sided) and hexahedrons (6 sided). Tetrahedron meshes
are relatively easy to set up as they can typically be generated automatically. This is
one of its main advantages as it considerably reduces the time required to construct
a mesh, especially for more complex geometries. On the other hand, automatically
generated meshes tend to be of a lower quality and there is no control over the dis-
(a)
(b)
Figure 1.4: Example of meshing of a cubic domain with (a) structured hexahedron mesh and
(b) unstructured tetrahedron mesh
==PAGE:30==
12
1 Introduction
tribution of elements throughout the geometry. This type of mesh is also referred to
as unstructured meshes. Hexahedral meshes can be constructed manually using the
blocking method, a so-called structured mesh. This method allows the user to have
more control over the mesh and typically results in a better quality. On the other
hand this method required time and experience and become diﬀicult to create as
the complexity of the geometry increases. Examples of structured and unstructures
meshes are represented in figure 1.4.
The quality of the mesh is essential in order to achieve an accurate solution, but
the meshing process can also be the most time consuming step of performing a CFD
simulation. So a balance can be made between spent time and accuracy of the results.
Though it is important to note that an other method can be used to create a mesh
with the required resolution, the mesh convergence study.
1.4.3
Definition of the flow problem
The next step in setting up a CFD simulation is to define the flow problem. This
is essentially selecting the equations to be solved, defining eventual parameters and
boundary conditions to the system. Based on the phenomena that is to be simulated,
the model equations are selected accordingly. Any flow problem typically requires the
momentum (equation (1.4)) and continuity (equation (1.1)) equations, as well as a
turbulence model (unless a laminar system is simulated). If the transport of a specie
is to be modelled, the specie transport equation (equation (1.31)) can be applied. The
heat equation can also be applied to model heat transport in the system, though is
not used in this project.
In order for the equations to be solved, some model parameters must be defined. For
instance when solving the momentum equation (equation (1.4)), the fluid density and
viscosity must be specified.
Spacial boundary conditions to the geometry boundaries must be specified, in order to
solve for a unique solution. The typical boundary conditions used in CFD are : Wall,
Inlet, Outlet, Opening, Symmetry and Rotational Periodicity. The wall boundary
condition can be either no slip wall, meaning the velocity of the fluid at the surface
of the wall is equal to zero in all directions, or free slip wall, meaning the stress of
the fluid at the surface of the wall is equal to zero. This is equivalent to no velocity
gradient near the wall, or no boundary layer. The inlet, outlet and opening bound-
ary conditions allow the fluid to pass through the boundary, only into the domain
for inlets, only out of the domain for outlets and both in and out of the domain for
openings. The symmetry boundary condition can be used to simulate symmetrical
systems by only simulating part of it. Rotational periodicity can be used in the same
way to only simulate a fraction of a system with rotational symmetry around an axis.
By using symmetry or rotational periodicity, it is possible to simplify the geometry,
by only simulating a fraction of it. This allows for a lower computational demand,
==PAGE:31==
1.4 Computational Fluid Dynamics
13
but can be less realistic especially for turbulent systems that tend to behave in an
unsymmetrical, chaotic way.
Regarding the temporal dimension, simulations can be performed in a Steady State
manner (setting the time derivatives to zero) to provide a steady state solution of
the system (solution for t →∞with no change over time), or in a Transient manner,
where the time derivative is involved in the equations and provides a time dependent
solution of the system (models the flow over time).
In the same way as spacial boundary conditions, if the time derivative is involved
in the equations, a temporal boundary condition must also be specified. Typically,
it is formulated as an initial condition, the state of the system at the beginning of
the simulation. Both for steady state and transient simulations, a step time must
be specified. For transient simulations, the step time is the actual discretization of
time, while for steady state simulations the time step is nonphysical. It should be
noted that flow problems that have a stable oscillatory behavior as t →∞can not
be modeled using steady state simulations.
In CFD, moving parts can be modeled in different ways.
A moving wall can be
modeled by specifying the wall velocity, and setting the velocity of the fluid at the
surface of the wall equal to the wall velocity. This method allows for modeling of wall
movement without any deformation of the actual fluid domain. For rotating parts,
such as an impeller in a bioreactor, a common method is to divide the fluid domain
into two separate domains where on domain including the rotating part is rotating
(also called rotor domain) and the rest of the fluid domain is specified as stationary
(stator domain). A mesh is constructed in each domain and the two meshes are finally
connected using a mesh interface. The mesh in the rotating domain is then rotating
along with the walls, and the mesh interface connects the mesh elements from each
side of the interface, at each time step.
Finally, two methods can be used to model the rotating domain. The Frozen Rotor
method accounts for the rotation by adding a momentum source to the fluid at
the surface of a rotating wall, without taking into account the displacement of the
rotating domain. The Moving Rotor method, contrarily, does take into account the
displacement of the rotating domain. The main advantage of using the Moving Rotor
method is that the model does take into account the changing relative positions of
the elements in the rotating and the static domains. On the other hand, the Moving
rotor method is more computationally demanding and can only be applied to transient
simulations.
1.4.4
Solving and post processing
Once the CFD model is constructed, it is then simulated using the numerical solver.
The numerical solver solves the systems of discretized model equations by minimizing
==PAGE:32==
14
1 Introduction
the Root Mean Square (RMS) of the residuals of each model variable. Typically, the
solution is considered as converged once the RMS of all residuals are and stay below
the pre-specified convergence criteria. Alternatively, a convergence criteria can be
set on the maximum residual, instead of the RMS. This allows for a more accurate
solution, but requires more iterations to reach the convergence criteria.
The require time to solve the CFD model depends on the the number of equations
to be solved and the available computational power. Meaning that increasing the
amount of mesh elements and the amount of step times to be solved, increases the
computational time. The value of the convergence criteria dictates how many itera-
tions are required to reach convergence, meaning a lowering the convergence criteria
will increase the computational time. Although a good initial guess may reduce the
computational time, as less iterations are required to reach the convergence criteria.
During the solving process, several errors can potentially occur. The different types
of errors are listed below (12).
• Round-off error occurs when the precision of the numerical solver is too low,
making the solution less accurate. This can be avoided by increasing the preci-
sion of the solver, but will increase the computational time.
• Iteration error occurs when not enough iterations have been performed to reach
a converged solution. this can be caused by the maximum number of itera-
tions being too low or the convergence criteria being too high. In both cases
the reached solution the solution may not actually be converged, meaning the
solution does not change by performing more iterations.
• Discretization error occurs when the constructed mesh is too coarse and is not
able to resolve the desired flow phenomena. In this case, there will be a sig-
nificant difference between the reached solution and the ”real / exact” solution
expected from a simulation with an infinitely fine mesh. Note that for transient
simulations, discretization errors may also occur with the discretization of the
time dimension. Indeed a too large time step may result in a poor resolution of
the flow. This can be solved by adjusting the time step such that the Courant
Number in all mesh elements is lower than 1.
• Model error occurs when model parameters and/or the models themselves are
not correctly selected. In this case, these is a deviation between the reached
solution and the ”real” solution that is expected, even though the residuals are
low, and that the solution is properly converged. A typical model error is the
choice of the wrong turbulence model, and can be solved by comparing several
models to analytical or experimental data, in order to assess which model best
fits the observations.
Finally after solving the CFD model, the results are yet to be presented in an under-
standable way. For example the model variables can be visualised on lines, planes or
volumes. It is also possible to compute overall system results such as the magnitude
==PAGE:33==
1.4 Computational Fluid Dynamics
15
of a force on a wall, or an average value of a model variable. CFD is sometimes re-
ferred to as ”Colorful Fluid Dynamics” due to the results typically being represented
in colorful contour or vector field plots.
==PAGE:34==
16
1 Introduction
1.5
Bacterial Cultivation
1.5.1
Introduction to Fermentation Processes
Fermentation has been part of human culture for thousands of years, as traces of
fermented beverages were found dating from the Neolithic period, during the sev-
enth millennium BCE in China (13).
The basic principle of fermentation is the
conversion of chemical compounds through biochemical reactions taking place inside
microorganisms as part of their metabolism. Indeed, every living organism extracts
energy from its surroundings through biochemical reactions, resulting in the conver-
sion of some chemical compounds into others. Different microorganisms have different
metabolisms, and throughout the years, humans have discovered how to use specific
microorganisms to produce valuable products. A well known example of fermentation,
is the conversion of glucose to ethanol using yeast (Saccharomyces Cerevisiae) during
the production of alcoholic beverages.
The metabolic pathways used by the microorganisms much depends on the surround-
ing conditions. Indeed temperature, pH, access to nutrients and more generally the
chemical composition surrounding the cells may influence the metabolism of the mi-
croorganism, which influences the metabolite composition.
So when developing a
fermentation process, it is important to make sure the microorganisms are exposed
to the right conditions for the specific production that is desired.
It is important to mention that the recent discoveries within the field of genetic science,
allows for a wide range of biological optimisation that can improve fermentation
processes. For example making the microorganism more eﬀicient at producing the
desired compound, more eﬀicient at consuming substrate, or more resilient to the
production conditions (pH, higher tolerance towards toxic or inhibiting compounds).
In the modern industry, fermentation processes take place in bioreactors of various
designs, depending on the type of production. Bioreactors can be operated in three
ways: Batch, Fed-batch and Continuous (see figure 1.5). A batch is operated as a
closed system where all the raw materials are added to the bioreactor, along with
the microorganisms, at the beginning. And after the fermentation, the broth is col-
lected and processed. A Fed-batch is the same as a batch but with the difference
that feed (or a mixture containing substrate) is continuously added to the bioreactor
during the fermentation. Finally a continuous bioreactor is operated by continuously
adding feed as well as continuously collect the broth. Each setup has its advantages
and disadvantages, and are selected accordingly depending on the type of production.
In all above cases, apart from the bioreactor setup, some fittings are added to the
bioreactor in order to maintain optimal production conditions during the entire fer-
mentation. Indeed, during the fermentation biochemical reactions occur, changing
the chemical composition in the bioreactor. For instance, some microorganisms pro-
duce acidic or basic metabolites during the fermentation, thus changing the pH in the
==PAGE:35==
1.5 Bacterial Cultivation
17
Figure 1.5: Schematic representation of the different bioreactor setups. Adapted from Canio
et al. (14)
bioreactor. Normally, cells have an optimal environment in which they grow best, e.g.
pH and temperature, so in order to maintain the desired process conditions constant,
a range of controllers are included. Typically, modern bioreactors include pH and
temperature controllers.
Fermentation processes can be classified in two groups. Aerobic fermentation requires
oxygen and bioreactors are therefore equipped with a sparger connected to an aeration
system. Anaerobic fermentation on the other hand, does not require oxygen addition,
and in some extreme cases, oxygen may even be toxic to the microorganism and so
an oxygen free environment must be maintained.
When considering industrial bioprocesses, the fermentation process, or upstream, only
includes the initial step of exponential biomass production. After the fermentation,
the broth containing a mixture of many compounds is then processed to separate the
product of interest from the rest of the broth. This step is call the downstream. The
design of the downstream much depends on the type of product and the requirements
for the final product. For instance, Bio-ethanol used for combustion may not require
a high purity, whereas a pharmaceutical product requires high purity, since it will be
used for human consumption.
1.5.2
Lactic Acid Bacteria Production
Lactic acid bacteria are a group of various bacteria, both bacilli (rod-shaped) and
cocci (spherical) (figure 1.6), with a spectrum of different metabolisms, that all have
in common the ability to produce lactic acid. And in parallel to this characteristic,
lactic acid bacteria have evolved a higher tolerance to acidic environments (becom-
ing acidophilic). This allows lactic acid bacteria to have a competitive advantage
over other microorganisms. As the environment becomes more acidic, the acidophilic
lactic acid bacteria thrives, while other microorganisms struggle. Early humans dis-
covered this particular adaptation, and used it to ferment milk and create cheese and
yogurt, by converting the lactose present in the milk into lactic acid. This allows the
==PAGE:36==
18
1 Introduction
(a)
(b)
Figure 1.6: Microscope picture of (a) Lactobacillus Plantarum and (b) Lactococcus Piscium,
adapted from Arasu et al. (15) and Saraoui et al. (16), respectively.
final product to be more resilient towards other microbial growth due to the lower
pH. Lactic acid bacteria generally being non pathogenic offered a real advantage for
early humans, being able to conserve food longer, and avoid pathogenic infections
from other microorganisms.
Being acidophillic, lactic acid bacteria thrive in acidic environments, however each
organism have a specific pH optimum and is still sensitive to changes in pH. When
the environment changes, e.g. pH, the microorganisms have to adapt to the chang-
ing condition, affecting their metabolism. The effects of external pH on lactic acid
bacteria activity was shown experimentally by Hansen et al. (17).
Nowadays, lactic acid bacteria are intensively used in the diary industry as well as in
other food productions, and plays a large role in global food supplies and the transi-
tion towards a sustainable food industry. Companies such as Christian Hansen A/S
have specialised in the production of lactic acid bacteria, for use in the food industry.
==PAGE:37==
1.6 Mixing in Bioreactors
19
1.6
Mixing in Bioreactors
Mixing is an essential parameter in many chemical and biochemical processes. Mixing
is the reduction of inhomogeneity in a system, being temperature, concentration or
phase. Materials and heat have two means of transport in a fluid, through diffusion
(conduction for heat) and convection. Diffusion transport is usually very slow, as
it depends on the concentration gradient and the diffusion coeﬀicient (according to
Fick’s Law) which usually have very small values. By introducing momentum into the
fluid, it creates convection, transporting material much more eﬀiciently than when
only relying on diffusion.
Generally, turbulence can be interpreted as convection
dissipating to smaller scales, and so more turbulence means more convection in the
small scales and thus better transport of material. So a general rule of thumb is that
increasing the turbulence in a system will improve the mixing.
In industrial scale production processes, mixing of liquids is usually performed using
stirred tanks. Both the type and configuration of the impeller(s) as well as the tank
geometry have an influence on the resulting mixing pattern. The two most simple and
common mixing patterns are the axial mixing pattern and the radial mixing pattern
(figure 1.7). These two mixing profiles are typically the type mixing profile expected
when using a marine impeller and a Rushton impeller respectively. Several impellers
can be placed on the shaft, and the resulting mixing will depend on the position of
the impellers. The rest of the tank geometry plays a role in the mixing. For example,
the use of baffles on the walls of the tank will contribute to increasing the turbulence
in the fluid.
The overall goal of mixing is to achieve identical process conditions throughout the re-
actor, and allows the entire process volume to operate at the desired conditions. This
is important for systems where the conditions have an influence on the process. In
the case of fermentation, the biochemical reactions carried out by the microorganisms
very much depend on the process conditions. Importantly, the extreme conditions at
(a)
(b)
Figure 1.7: (a) Axial and (b) Radial Mixing Patterns, Adapted from (18, p. 146)
==PAGE:38==
20
1 Introduction
which microorganisms may die (i.e. because of sub-optimal temperature, pH, shear
stress...), should be avoided and homogeneous mixing is key for this purpose.
Moreover, gradients in the fermentation tank may cause issues with the control of the
process. For example, if the monitoring of the controlled variable is not representative
of the actual value in the tank, the control response will not be adequate.
The mixing in a stirred tank can be improved with different means. At first, the
power used to rotate the impeller can be increased, though there are limitations for
larger scales where large motors are required, increasing the energy consumption no-
tably (5, p. 154). Also, fast rotation of the impeller may cause issues with exposing
the microorganisms to high shear stress. A high level of shear stress in the fluid may
cause damage to the microorganisms and in extreme cases provoke cell disruption.
Different species of microorganisms have varying resilience to high shear stress.(19,
20)
Another way to improve the mixing without increasing the mixing power is by opti-
mising the mixing pattern in the tank, by changing the geometry and position of the
impeller(s), as well as adding baffles to induce turbulence in the fluid. The overall
shape of the tank also has an effect on the resulting mixing profile. The height to
diameter ratio, the size scale as well as the shape of the top and bottom of the tank
will influence the resulting flow profile.
Alternatives to the traditional stirred tank have been proposed in the industry. For
example, Bubble columns rely on the buoyancy of air bubbles in the tank to mix the
liquid phase.
One of the main challenges with optimising the mixing in industrial tanks is that the
tanks are in use most of the time, and planning experiments can be limited by the
schedule of the production. Also, changing pieces and features on large tanks can be
expensive, especially when not knowing if the change will improve the mixing. Here,
CFD can play an important role, working as a ”virtual laboratory” where simulations
of the system can be performed for many different configurations, and provide valu-
able knowledge about what experiments are worth investigating further.
In order to quantify and compare the mixing between different tanks and configura-
tions, a normalised Mixing Time is typically used. The mixing time is defined as the
time it takes a system after a disturbance to reach a certain degree of homogeneity.
For example, when adding base in a fermentor through an inlet pipe, the base prop-
agates in the tank with the flow field until reaching a constant concentration in the
entire tank. Mixing time experiments can be performed in this way, by monitoring
the concentration of the added compound. A dimensionless concentration is used to
determine the mixing time, in order to compare different mixing time experiments
carried out at different concentrations, and is shown in equation (1.33) (21, p. 172).
==PAGE:39==
1.6 Mixing in Bioreactors
21
C′(t) = C(t) −C0
C∞−C0
(1.33)
C′(t) being the dimensionless concentration, C(t) being the actual concentration, C0
being the initial concentration and C∞being the final concentration at homogeneity,
C∞= C(t →∞). Here, one could ideally define a threshold for the dimensionless
concentration, and measure the time from the disturbance to the threshold is reached.
In practice, this is hardly achievable as due to fluctuations in the measurements and
the fact that the threshold concentration can be reached after different times in differ-
ent regions of the tank. Therefore, the variance of the dimensionless concentration is
used to quantify the mixing. The logarithm of the variance is used, as it is expected
that the fluctuations decay exponentially, giving equation (1.34) (21, p. 173).
log σ2 = log(C′ −1)2
(1.34)
For example defining the threshold at 90% homogeneity, the mixing time is the time
it takes until the log σ2 value is equal to log(0.90 −1)2 = −2.
The log σ2 value can be determined from an experiment or a simulation with equa-
tion (1.35) based on the n monitoring points (21, p. 173).
log σ2 = log
(
1
n
n
∑
i
(C′
i −1)2
)
(1.35)
The typically linear response in the log of the variance allows to estimate mixing times
for various degrees of homogeneity based on one measurement, using equation (1.36)
(21, p.
173), θn and θm being the mixing time required to reach the degree of
homogeneity n and m.
θn
θm
= log(1 −n)
log(1 −m)
(1.36)
Alternatively, the mixing time of a stirred tank can be estimated using empirically
methods. For instance, Doran presents the following expression for the mixing time,
considering one Rushton impeller, valid for high Reynolds Number (> 5 · 103) (5,
p.149) :
Nitm = 1.54Vtank
D3
i
(1.37)
Vtank being the liquid volume in [m3], Di the impeller diameter in [m], Ni the stirring
speed in [rev/min] and tm the mixing time in [min]. This empirical expression is based
on the assumption that as the Reynolds Number increases, Nitm tends towards a
constant value only depending on the total volume and the size of the impeller (5,
p.149).
==PAGE:40==
22
==PAGE:41==
CHAPTER 2
Materials & Method
In this section, the numerical model is created, and the different steps involved are
explained. At first, the geometry of the bioreactor is sketched, a range of meshes are
constructed and the flow problem is specified. Then, the simulations are performed
for the different meshes in order to assess the effects of the space discretization on
the results. After selecting the final mesh to be used in the simulation, simulations
are performed using a range of different time steps, to assess the effect of time dis-
cretization on the results. The goal of the mesh and time step study is to determine
how the system should discretization, to be as simple as possible while still providing
accurate results. Finally, the two simulation setups to be performed are described.
The first setup is a simulation over the time scale of the mixing time (seconds), and
the second setup is a simulation over the timescale of the entire fermentation time
(hours). Sketching is performed in SOLIDWORKS, meshing is performed in ANSYS
ICEM and the simulations are performed in ANSYS CFX.
2.1
Setup of the CFD model
In this project, heat transfer is neglected, so heat transfer through the bioreactor walls
is not to be simulated, therefore only the fluid volume is sketched. The fermentation
tank to be modeled is a 18.5 liter tank with Klöpper bottom. Inside the tank is located
1 impeller and 2 baffles. The specific geometry of the bioreactor was given by the
Christian Hansen, and is listed in table 2.1. Two types of impellers are investigated in
this project, a 4 blade marine impeller and a 6 blade Rushton impeller. The impeller
configuration is shown in table 2.2.
Considering the two baffles, it is possible to simplify the model by only simulating half
of the geometry, and using rotational periodicity. The different parts are sketched in
SOLIDWORKS and can be seen on figures 2.1 and 2.2 (the green and red surfaces are
where the rotational periodicity boundary condition is applied, blue surface represents
the liquid top surface). The static and rotating domains are sketched separately. The
rotating domain is defined as the cylinder of radius 0.75[m] and 0.7[m] high with the
impeller at it’s center. The Static domain is then the rest of the fermentor volume.
A set of different meshes are generated in ANSYS ICEM. 6 unstructured meshes for
the two rotating domains (marine and Rushton) and 6 unstructured meshes for the
static domain. A set of 3 structured meshes were also generated using the blocking
technique. The properties of the different meshes can be seen in table 2.3. US1, US2,
==PAGE:42==
24
2 Materials & Method
Figure 2.1: Geometry of the Bioreactor sketched in SOLIDWORKS, with the boundaries and
domains indicated
(a)
(b)
Figure 2.2: Geometry of the (a) Marine and (b) Rushton impellers
==PAGE:43==
2.1 Setup of the CFD model
25
Parameter
Value
Inside height of fermenter
3400 [mm]
Cylindrical part of fermentor
2250 [mm]
From end of top cylindrical part to top of fermentor
575 [mm]
From end of bottom cylindrical part to bottom of fermentor
575 [mm]
Inside diameter of fermenter
2800 [mm]
Total volume of fermenter
18.5 [m3]
Highest working volume of fermenter
17 [m3]
Lowest liquid volume during fermenter
5 [m3]
Operating liquid level
2825 [mm]
Number of baffles
2
Baffle height
2200 [mm]
Baffle width
280 [mm]
Baffle depth
50 [mm]
Baffle placement from fermentor wall
50 [mm]
Agitator shaft diameter
45 [mm]
Table 2.1: Geometry Parameters of the Bioreactor given by Christian Hansen
Parameter
Value
Number of impellers
1
Total impeller diameter
900 [mm]
Distance from bottom to impeller
660 [mm]
Table 2.2: Impeller configuration
US3, US5 and US6 have the same structure, but increasing global refinement, US4
has greater refinement around the baffles and impeller. S1, S2 and S3 are structured
meshes for the static domain and the Rushton impeller.
For the marine impeller
rotating domain, only unstructured meshes were investigated due to the more complex
geometry.
The simulation parameters physics conditions and boundary conditions are summa-
rized in table 2.4.
Finally as initial condition, the velocity field is set to zero, corresponding to a sta-
tionary fluid at t = 0. Simulations are performed in the CFD software ANSYS CFX.
==PAGE:44==
26
2 Materials & Method
# of Elements
Domain
US1
US2
US3
US4
US5
US6
S1
S2
S3
Rushton
59 017
292 652
500 923
1 292 220
616 850
1 188 025
207 660
480 664
766 182
Marine
39 466
202 317
366 962
710 183
566 049
1 128 488
-
-
-
Stator
60 250
131 109
220 331
660 229
254 330
601 857
161 729
236 467
465 846
Table 2.3: Number of nodes in the different meshes, S for structured and US for unstructured
Parameter
Value
Fluid
Water 25℃
Fluid Compressibility
Incompressible
Buoyancy
No
Rotational velocity of rotating domain
180[rpm]
Fluid initialization
Stationary
Boundary Conditions
Walls
No Slip Wall
Impeller
No Slip Wall
Shaft
Rotating No Slip Wall
Baffles
No Slip Wall
Top surface
Free Slip Wall
Cut Plane
Rotational Periodicity
Stator/Rotor Interface
Interface Model
Table 2.4: Model Parameters and Boundary conditions for the Bioreactor Model
2.2
Mesh study
The mesh study is a method used to compare different meshes, in order to select the
best. The typical workflow is to create a mesh using the fewest, reasonable number of
elements. Then recreate meshes with more element, with either global and/or local
refinements and compare the results to those of the previous meshes. The overall goal
is to find the mesh with the fewest number of elements (to minimise computational
time) that still provides satisfactory results.
To evaluate the performance of each mesh and compare them, one or several output
values can be used. One typically would observe the output variables of interest for
the project. And so for this mesh study, the maximum shear stress, the maximum
velocity as well as a plane integral of the velocity are chosen as output variables to
==PAGE:45==
2.2 Mesh study
27
be used in the mesh study. It is expected that as the mesh density increases, the
output value will tend towards a finite value. And by defining a convergence criteria
for the output value, one can determine the optimal mesh, with the fewest number
of elements within the criteria.
An other method to evaluate the results from such flow field around a rotating im-
peller, is to observe the velocity profile along a line cutting the tank through the
impeller. Plotting the velocity profiles from the different meshes can provide qualita-
tive information about the results.
Knowing that in this project, two impeller geometries are investigated, two mesh
study have to be conducted, for each geometry. To compare only the performance of
the mesh, all other parameters must remain constant for all simulations. The used
simulation parameters used for this mesh study are shown in table 2.5.
Parameter
Value
Analysis type
Steady State
Modeled fluid
Water 25℃
Turbulence model
k −ϵ
Impeller rotational speed
180 [rpm]
Rotor motion
Frozen Rotor
Total number of iterations
50 000
Time step
0.001[s] for ATS < 5000
0.002[s] for 5000 < ATS < 10000
0.005[s] for 10000 < ATS < 15000
0.01[s]
for 15000 < ATS
Table 2.5: Simulation Parameters for the Bioreactor Mesh Study, (ATS) for Accumulated
Time Step
At first, the rotating domain is simulated alone, using an opening boundary condition
instead of the domain interface, and the different rotor meshes are compared.
Overall, all meshes resulted in a similar flow profile in the rotating domain, visible on
figures 2.3 and 2.4. As expected, the Rushton impeller tends to push the fluid in the
radial direction, whereas the marine impeller pushes the fluid in the axial direction.
Regarding the maximum velocity in the rotor (figure 2.5), for the marine impeller, all
meshes provided similar results, and seem to tend towards 9 [m3/s]. Regarding the
Rushton impeller, a clear increase is observed for the unstructured meshes, reaching
17 [m/s] for the mesh with 1.188 million element. The structured meshes perform
mush better than the unstructured meshes, reaching the same final value with a mesh
==PAGE:46==
28
2 Materials & Method
(a)
(b)
Figure 2.3: Resulting flow profile produced by the rotating marine impeller (US6 meshe) on
(a) XY- plane, (b) XZ- plane, Contour plot (right) is the absolute velocity magnitude in all
directions, and vector field (left) is the velocity projection on visualised plane
(a)
(b)
Figure 2.4: Resulting flow profile produced by the rotating rushton impeller (US6 meshe) on
(a) XY- plane, (b) XZ- plane, Contour plot (right) is the absolute velocity magnitude in all
directions, and vector field (left) is the velocity projection on visualised plane
==PAGE:47==
2.2 Mesh study
29
Figure 2.5: Maximum velocity magnitude [m/s] in the rotor domain as function of number
of mesh elements
Figure 2.6: Maximum Shear Stress in the rotor domain as function of number of mesh
elements
==PAGE:48==
30
2 Materials & Method
of 480k elements.
Now looking at the maximum shear stress in the rotating domain (figure 2.6), the
values clearly converge for the marine impeller. However for the Rushton, both for
the structured and unstructured meshes, the value has not converged.
The velocity profiles along a cut line are exported and plotted in figures 2.7 and 2.8.
For the marine impeller, an sudden increase in the velocity at the tip of the impeller
is observed only for the two finer meshes.
And is only clearly resolved with the
finest mesh.
For the Rushton impeller, the unstructured meshes resulted in non-
smooth curves with small oscillations, whereas all the structured meshes resulted in
smooth velocity profiles. This can be explained by the fact that with the tetrahedral
unstructured meshes, some error is introduced due to the more abundant number
of projection performed in the calculations, when solving the governing equations in
terms of x, y and z components. The S1 mesh results in a slightly lower max value
around r = 0.33, compared to S2 and S3. When running the simulations, it was
observed especially for the rushton impeller, that the solver would not reach a steady
state solution. The flow close to the opening boundary condition was oscillating as
the solver was running. This is expected for some some systems where turbulence
introduces oscillations in the flow (for example vortex shedding). This explains the
many different velocity profiles, resulting from the different meshes, between r = 0.60
to the boundary at r = 0.75.
Based on the above observations, it can be concluded that the US6 mesh for the
[...]
model can then be implemented in MATLAB where it can be solved with a stiff nu-
merical solver. Also, the fewer number of compartments relative to the initial number
==PAGE:73==
3.4 Fermentation Model
55
0
0.5
1
1.5
2
2.5
3
3.5
4
Time [h]
0
10
20
30
40
50
60
70
Concentration [g/L]
X
S
Lactic Acid
Lactate
Figure 3.12: Concentration profiles of Biomass (X), Substrate (S), lactic acid and lactate
during the fermentation, thin line : MATLAB simulation, and the thick line : CFX simula-
tion
0
0.5
1
1.5
2
2.5
3
3.5
4
Time [h]
0
0.05
0.1
0.15
0.2
0.25
0.3
0.35
0.4
Concentration [mol/L]
Sodium
Lactate+Lactic Acid
Figure 3.13: Concentration profiles of sodium and lactate during the fermentation, thin line
: MATLAB simulation, and the thick line : CFX simulation
==PAGE:74==
56
3 Results & Discussion
0
0.5
1
1.5
2
2.5
3
3.5
4
Time [h]
5.5
5.6
5.7
5.8
5.9
6
6.1
6.2
6.3
6.4
6.5
pH
MATLAB
CFX Cube model
Figure 3.14: pH profile during the fermentation, pH control setpoint at pH 6
0
0.5
1
1.5
2
2.5
Time [h]
10 -8
10 -7
10 -6
10 -5
10 -4
OH- Concentration [mol/L]
Figure 3.15: OH– concentration profile during the fermentation, logarithmic y axis
==PAGE:75==
3.4 Fermentation Model
57
of mesh elements in the CFD model reduces the number of equations to be solved,
thus the computational time. In the same way as a CFD model, the compartment
model requires rigorous experimental validation in order to be used for optimisation
purposes.
The implementation of a compartment model to simulate a biokinetic
model was performed by Spann(22). Spann concluded that the compartment model
was able to predict pH gradients in the tank fairly accurately, compared to experi-
mental measurements. The model is then used successfully to predict pH gradients
in the tank,as function of the position of the base addition and pH measuring point
used as controller input.
Regarding the overall approach to modeling the pH, the alternative is to use an ex-
perimental correlation to predict the pH. On the other hand, the buffer model has
some advantages. The buffer model can be fitted to any broth composition through
the Z parameter. Both the initial Z, HZ and pKZ values can be manipulated to fit the
buffer behaviour of the broth, accounting for all unknown/unquantified compounds
in the broth that contribute to the buffer capacity, such as amino acids. Then the
model can then be used to predict the pH gradients, with various buffer compositions.
==PAGE:76==
58
==PAGE:77==
CHAPTER 4
Conclusion
The objectives of the study was to construct a CFD model to simulate industrial pro-
cess conditions during fermentation. The mixing model was implemented successfully,
both in ANSYS CFX and STARCCM+. The two CFD software produced different
mixing profiles for the marine impeller, but similar mixing profiles for the rushton
impeller. With the ANSYS CFX simulation, the rushton impeller resulted in a lower
mixing time compared to the marine impeller. At this stage, experimental validation
of the model is crucial, as significantly different results were observed, when using
different simulation parameters, i.e. numerical solvers and turbulence models. Addi-
tionally, further investigation of the rheological properties of the fermentation broth,
as function of cell density, will contribute to a more realistic model.
The wall shear on the impeller surface resulted in different distributions on the marine
and rushton impellers, but have close average values. High wall shear regions on both
impellers may cause cell damage, however the marine impeller have a more homoge-
neous wall shear distribution, making it potentially less harming to the cells. It is
concluded that the wall shear may not be the most accurate parameter to investigate,
and a lifeline approach would provide more information about the real shear stress
conditions cells are exposed to during the fermentation. The lifeline approach uses
particle tracking to monitor the process conditions, and provides information about
the conditions cells experience during a life cycle.
The buffer model constructed to describe the pH was successfully implemented in
MATLAB, however the stiff nature of the system made it diﬀicult to implement in
the CFD model. Therefore, changes to the model must me made, in order to facili-
tate the solving process, and obtain significant results. The goal of the study was to
investigate and quantify pH gradients during fermentation, which requires a more ad-
vanced model than the ideal homogeneous case. A possible adaptation to the model
is to convert the CFD model into a compartment model, that can be solved with a
stiff numerical solver in MATLAB.
The goal of the study was also to propose potential optimisations to the system.
However using a model for optimisation purposes requires rigorous experimental val-
idation. A working simulation of the microbial kinetic model as well as the buffer
model would allow investigation of pH gradients in the tank with different control
==PAGE:78==
60
4 Conclusion
setups,i.e position of base addition point and location of monitor point used as con-
troller input. The setup leading to the lowest pH gradients would be considered as
the optimal control setup.
Apart from the control structure, other adaptations can be made to the process
to minimise pH gradients in the tank.
In general, better mixing will reduce the
gradients, and several adaptations can be made to improve the mixing. For instance,
the position and number of impellers, tank geometry and baffles disposition can be
adjusted to optimise mixing. Moreover, a higher buffer capacity will also contribute
to minimise variations in pH. Quantifying the impact of the buffer capacity on the
pH gradients could be performed with a full biokinetic and buffer model. In terms
of implementation of potential optimisations, some changes are easier to implement
in the industrial scale. For instance structural changes to the fermentation tank are
hardly feasible, whereas changing the control structure or initial buffer composition is
associated with fewer practical limitations. From the perspective of Christian Hansen,
this study provides valuable insights on the intrinsic limitations related to CFD and
stiff systems, as well as the alternatives to solve the system.
Future work on the model is necessary to model pH gradients in the tank, with the
kinetic and buffer models. A compartment model of the system can be constructed
and implemented in MATLAB, where it can be solved with the stiff numerical solver.
Moreover, experimental validation of the model is essential if the model is to be
further used to propose potential optimisations to the system.
==PAGE:79==
Bibliography
1.
R. Kasperowicz, Journal of International Studies 8, issn: 23063483 (2015).
2.
J. S. Riti, D. Song, Y. Shu, M. Kamah, Journal of Cleaner Production 166, issn:
09596526 (2017).
3.
H. Versteeg et al., An Introduction to Computational Fluid Dynamics - The
Finite Volume Method, isbn: 9783540594345, arXiv: arXiv:1011.1669v3.
4.
R. B. Bird, W. E. Stewart, E. N. Lightfoot, Transport Phenomena, Revised 2nd
Edition, isbn: 0470115394.
5.
P. M. Doran, Bioprocess engineering principles: Second edition, vol. 9780080917702.
6.
Kemiske enhedsoperationer (Polyteknisk Forlag, Lyngby, ed. 5, 2004), 597 sider,
illustreret, isbn: 8750209418, 9788750209416 CN - 66.08.
7.
Philosophical Transactions of the Royal Society of London. (A.), issn: 0264-3820
(1895).
8.
D. C. Wilcox, AIAA Journal, issn: 00011452 (1988).
9.
D. Monk, E. A. Chadwick, 7th European Conference for Aeronautics and Space
Sciences (EUCASS) (2017).
10.
J. Elcner, F. Lizal, M. Jicha, presented at the EPJ Web of Conferences, vol. 143.
11.
M. Eslahpazir, R. Krull, U. Krühne, in Comprehensive Biotechnology, isbn:
9780444640475.
12.
ANSYS Inc. 2016, (https://www.scribd.com/document/400675382/Fluent-
Intro-17-0-Module09-BestPractices-pdf).
13.
P. E. McGovern et al., Proceedings of the National Academy of Sciences of the
United States of America, issn: 00278424 (2004).
14.
D. Canio, D. Bari, R. Patrizi, in Biofuel Production-Recent Developments and
Prospects.
15.
M. V. Arasu, N. A. Al-Dhabi, S. Ilavenil, K. C. Choi, S. Srigopalram, Saudi
Journal of Biological Sciences 23, issn: 1319562X (2016).
16.
T. Saraoui, F. Leroi, J. Björkroth, M. F. Pilet, Lactococcus piscium: a psy-
chrotrophic lactic acid bacterium with bioprotective or spoilage activity in food—a
review, 2016.
==PAGE:80==
62
Bibliography
17.
G. Hansen et al., Applied Microbiology and Biotechnology 100, issn: 14320614
(2016).
18.
N. Harnby, M. F. Edwards, A. W. Nienow (1985).
19.
H. Lange, P. Taillandier, J. P. Riba, Journal of Chemical Technology and Biotech-
nology, issn: 02682575 (2001).
20.
J. P. Arnaud, C. Lacroix, C. Foussereau, L. Choplin, Journal of Biotechnology
29, issn: 01681656 (1993).
21.
D. A. R. Brown, P. N. Jones, J. C. Middleton, G. Papadopoulos, E. B. Arik, in
Handbook of Industrial Mixing (John Wiley Sons, Ltd, 2003), chap. 4, pp. 145–
256, isbn: 9780471451457, (https://onlinelibrary.wiley.com/doi/abs/10.
1002/0471451452.ch4).
22.
R. Spann, English, PhD thesis, 2018.
23.
R. Spann et al., Biotechnology and Bioengineering 116, issn: 10970290 (2019).
24.
C. Haringa et al., Engineering in Life Sciences 16, issn: 16182863 (2016).
25.
L. K. Shekhawat, J. Sarkar, R. Gupta, S. Hadpe, A. S. Rathore, Journal of
Biotechnology, issn: 18734863 (2018).
==PAGE:81==
APPENDIX A
Final mesh
A.1
S2 Stator Mesh
Figure A.1: S2 Stator Mesh, front view
==PAGE:82==
64
A Final mesh
Figure A.2: S2 Stator Mesh, back view
Figure A.3: S2 Stator Mesh, top view
==PAGE:83==
A.1 S2 Stator Mesh
65
Figure A.4: S2 Stator Mesh, close up view of interface
==PAGE:84==
66
A Final mesh
A.2
S3 Stator Mesh
Figure A.5: S3 Stator Mesh, front view
==PAGE:85==
A.2 S3 Stator Mesh
67
Figure A.6: S3 Stator Mesh, back view
Figure A.7: S3 Stator Mesh, top view
==PAGE:86==
68
A Final mesh
Figure A.8: S3 Stator Mesh, close up view of interface
A.3
Marine Rotor Mesh
Figure A.9: Marine rotor Mesh, front view
==PAGE:87==
A.3 Marine Rotor Mesh
69
Figure A.10: Marine rotor Mesh, top view
Figure A.11: Marine rotor Mesh, close up view of impeller
==PAGE:88==
70
A Final mesh
A.4
Rushton Rotor Mesh
Figure A.12: Rushton rotor Mesh, front view
Figure A.13: Rushton rotor Mesh, top view
==PAGE:89==
A.4 Rushton Rotor Mesh
71
Figure A.14: Rushton rotor Mesh, close up view of side of the impeller
Figure A.15: Rushton rotor Mesh, close up view of top of the impeller
==PAGE:90==
72
==PAGE:91==
APPENDIX B
B.1
Acid/Base Kinetic Model
Reaction
Reaction Rate Expression
Acid Dissociation
Constant
Rate constant
NH4
+ −−⇀
↽−−NH3 + H+
KrNHKNH[NH4
+] −KrNH[NH3][H+]
KNH = 10−9.06
KrNH = 1012[s−1]
H3PO4 −−⇀
↽−−H2PO4
– + H+
KrP 1KP 1[H3PO4] −KrP 1[H2PO4
−][H+]
KP 1 = 10−2.55
KrP 1 = 108[s−1]
H2PO4
– −−⇀
↽−−HPO4
2– + H+
KrP 2KP 2[H2PO4
−] −KrP 2[HPO4
2−][H+]
KP 2 = 10−6.30
KrP 2 = 1012[s−1]
H2CO3 −−⇀
↽−−HCO3
– + H+
KrC1KC1[H2CO3] −KrC1[HCO3
−][H+]
KC1 = 10−11.01
KrC1 = 107[s−1]
C3H6O3 −−⇀
↽−−C3H5O3
– + H+
KrLAKLA[C3H6O3] −KrLA[C3H5O3
−][H+]
KLA = 10−3.86
KrLA = 107[s−1]
H2O −−⇀
↽−−OH– + H+
KrW KW −KrW [OH−][H+]
KW = 10−14
KrW = 1010[s−1]
ZH+ −−⇀
↽−−Z + H+
KrZKZ[ZH+] −KrZ[Z][H+]
KZ = 10−9.4
KrZ = 107[s−1]
NaOH −−→Na+ + OH–
KrNa[NaOH]
-
KrNa = 1012[s−1]
Reaction Rate Vector :
R1 = KrNHKNH[NH4
+] −KrNH[NH3][H+]
R2 = KrP 1KP 1[H3PO4] −KrP 1[H2PO4
−][H+]
R3 = KrP 2KP 2[H2PO4
−] −KrP 2[HPO4
2−][H+]
R4 = KrC1KC1[H2CO3] −KrC1[HCO3
−][H+]
R5 = KrLAKLA[C3H6O3] −KrLA[C3H5O3
−][H+]
R6 = KrW KW −KrW [OH−][H+]
R7 = KrNa[NaOH]
R8 = KrZKZ[ZH+] −KrZ[Z][H+]
ratevector =
[
R1
R2
R3
R4
R5
R6
R7
R8
]
Stoichiometric matrix :
==PAGE:92==
74
B
S=
C3H6O3
NaOH
H+
H2CO3
HCO3−
C3H5O3−
NH4+
NH3
H3PO4
H2PO4−
HPO42−
OH−
ZH+
Z
Na+




0
0
1
0
0
0
-1
1
0
0
0
0
0
0
0
R1
0
0
1
0
0
0
0
0
-1
1
0
0
0
0
0
R2
0
0
1
0
0
0
0
0
0
-1
1
0
0
0
0
R3
0
0
1
-1
1
0
0
0
0
0
0
0
0
0
0
R4
-1
0
1
0
0
1
0
0
0
0
0
0
0
0
0
R5
0
0
1
0
0
0
0
0
0
0
0
1
0
0
0
R6
0
-1
0
0
0
0
0
0
0
0
0
1
0
0
1
R7
0
0
1
0
0
0
0
0
0
0
0
0
-1
1
0
R8
Finally, the rate of formation of the individual compounds can be obtained with the
equation below:
rates = ratevector ∗S
Resulting in the following array (or 1 row matrix):
rates =
[d[C3H6O3]
dt
d[NaOH]
dt
d[H+]
dt
d[H2CO3]
dt
d[HCO3
−]
dt
d[C3H5O3
−]
dt
d[NH4
+]
dt
d[NH3]
dt
d[H3PO4]
dt
d[H2PO4
−]
dt
d[HPO4
2−]
dt
d[OH−]
dt
d[ZH+]
dt
d[Z]
dt
d[Na+]
dt
]
Where :
d[C3H6O3]
dt
= −R5
(B.1)
d[NaOH]
dt
= −R7
(B.2)
d[H+]
dt
= R1 + R2 + R3 + R4 + R5 + R6 + R8
(B.3)
d[H2CO3]
dt
= −R4
(B.4)
d[HCO3
−]
dt
= R4
(B.5)
d[C3H5O3
−]
dt
= R5
(B.6)
d[NH4
+]
dt
= −R1
(B.7)
d[NH3]
dt
= R1
(B.8)
d[H3PO4]
dt
= −R2
(B.9)
d[H2PO4
−]
dt
= R2 −R3
(B.10)
==PAGE:93==
B.1 Acid/Base Kinetic Model
75
d[HPO4
2−]
dt
= R3
(B.11)
d[OH−]
dt
= R6 + R7
(B.12)
d[ZH+]
dt
= −R8
(B.13)
d[Z]
dt
= R8
(B.14)
d[Na+]
dt
= R7
(B.15)
==PAGE:94==
76
==PAGE:95==
APPENDIX C
C.1
Mesh Study
0
5
10
15
20
25
30
35
40
Time [s]
0
0.5
1
1.5
Dimensionless tracer concentration
MP1
MP2
MP3
MP4
95% Homogeneity
Figure C.1: Dimensionless tracer concentration as function of time, at the four monitoring
points, with Marine impeller, full lines are results from the S1 mesh, dashed line are the
results from the S2 mesh and dotted line are the results from the S3 mesh.
==PAGE:96==
78
C
0
5
10
15
Time [s]
0
0.5
1
1.5
Dimensionless tracer concentration
MP1
MP2
MP3
MP4
95% Homogeneity
Figure C.2: Dimensionless tracer concentration as function of time, at the four monitoring
points, with Rushton impeller, full lines are results from the S1 mesh, dashed line are the
results from the S2 mesh and dotted line are the results from the S3 mesh.
==PAGE:97==
C.2 Time Step Study
79
C.2
Time Step Study
0
5
10
15
20
25
30
35
40
Time [s]
0
0.5
1
1.5
Dimensionless tracer concentration
MP1
MP2
MP3
MP4
95% Homogeneity
Figure C.3: Dimensionless tracer concentration as function of time, at the four monitoring
points, with Marine impeller, full lines are results using a timestep of 1 [s], dashed lines are
the results using a timestep of 0.5 [s], dashed/dotted lines are the results using a timestep of
0.25 [s] and dotted lines are the results using a timestep of 0.1[s].
==PAGE:98==
80
C
0
5
10
15
Time [s]
0
0.5
1
1.5
Dimensionless tracer concentration
MP1
MP2
MP3
MP4
95% Homogeneity
Figure C.4: Dimensionless tracer concentration as function of time, at the four monitoring
points, with Rushton impeller, full lines are results using a timestep of 1 [s], dashed lines are
the results using a timestep of 0.5 [s], dashed/dotted lines are the results using a timestep of
0.25 [s] and dotted lines are the results using a timestep of 0.1[s].
==PAGE:99==
APPENDIX D
Results
==PAGE:100==
82
D Results
==PAGE:101==
D.1 Flow profiles with the SST and Laminar flow models
83
D.1
Flow profiles with the SST and Laminar flow models
(a)
(b)
(c)
Figure D.1: Resulting mixing profiles in the bioreactor using the SST model, with Marine
Impeller, (a) XY plane, (b) YZ plane, (c) XZ plane. Contour plot (right) is the absolute
velocity magnitude in all directions, and vector field (left) is the velocity projection on XY
plane
==PAGE:102==
84
D Results
(a)
(b)
(c)
Figure D.2: Resulting mixing profiles in the bioreactor using the laminar flow model, with
Marine Impeller, (a) XY plane, (b) YZ plane, (c) XZ plane. Contour plot (right) is the
absolute velocity magnitude in all directions, and vector field (left) is the velocity projection
on XY plane
==PAGE:103==
D.1 Flow profiles with the SST and Laminar flow models
85
(a)
(b)
(c)
Figure D.3: Resulting mixing profiles in the bioreactor using the SST model, with Rushton
Impeller, (a) XY plane, (b) YZ plane, (c) XZ plane. Contour plot (right) is the absolute
velocity magnitude in all directions, and vector field (left) is the velocity projection on XY
plane
==PAGE:104==
86
D Results
(a)
(b)
(c)
Figure D.4: Resulting mixing profiles in the bioreactor using the laminar flow model, with
Rushton Impeller, (a) XY plane, (b) YZ plane, (c) XZ plane. Contour plot (right) is the
absolute velocity magnitude in all directions, and vector field (left) is the velocity projection
on XY plane
==PAGE:105==
D.2 Dimensionless Concentration Plots
87
D.2
Dimensionless Concentration Plots
0
10
20
30
40
50
Time [s]
0
0.5
1
1.5
2
2.5
3
Dimensionless tracer concentration
MP1
MP2
MP3
MP4
Figure D.5: Dimensionless tracer concentration as function of time, at the four monitoring
points, with Marine impeller, full lines are results from the k −ϵ model, dashed line are the
results from the SST model and dotted line are the results from the Laminar Flow model.
==PAGE:106==
88
D Results
0
5
10
15
20
Time [s]
0
0.5
1
1.5
2
2.5
3
Dimensionless tracer concentration
MP1
MP2
MP3
MP4
Figure D.6: Dimensionless tracer concentration as function of time, at the four monitoring
points, with Rushton impeller, full lines are results from the k −ϵ model, dashed line are the
results from the SST model and dotted line are the results from the Laminar Flow model.
==PAGE:107==
D.3 Shear Stress
89
D.3
Shear Stress
Figure D.7: Wall Shear on the Surface of the Marine Impeller, using the k−ϵ model, Contour
plot range : 0 [Pa] - 290 [Pa]
Figure D.8: Wall Shear on the Surface of the Marine Impeller, using the SST model, Contour
plot range : 0 [Pa] - 290 [Pa]
==PAGE:108==
90
D Results
Figure D.9: Wall Shear on the Surface of the Rushton Impeller, using the k −ϵ model,
Contour plot range : 0 [Pa] - 290 [Pa]
Figure D.10: Wall Shear on the Surface of the Rushton Impeller, using the SST model,
Contour plot range : 0 [Pa] - 290 [Pa]
==PAGE:109==
D.4 STARCCM+ Simulation
91
D.4
STARCCM+ Simulation
Figure D.11: Mixing profile resulting from the STARCCM+ simulation with marine impeller
and k−ϵ turbulence model, XY plane, Contour plot (right) is the absolute velocity magnitude
in all directions, and vector field (left) is the velocity projection on XY plane
==PAGE:110==
92
D Results
Figure D.12: Mixing profile resulting from the STARCCM+ simulation with marine impeller
and k−ϵ turbulence model, XZ plane, Contour plot (right) is the absolute velocity magnitude
in all directions, and vector field (left) is the velocity projection on XZ plane
==PAGE:111==
D.4 STARCCM+ Simulation
93
Figure D.13: Mixing profile resulting from the STARCCM+ simulation with rushton impeller
and k−ϵ turbulence model, XY plane, Contour plot (right) is the absolute velocity magnitude
in all directions, and vector field (left) is the velocity projection on XY plane
==PAGE:112==
94
D Results
Figure D.14: Mixing profile resulting from the STARCCM+ simulation with rushton impeller
and k−ϵ turbulence model, XZ plane, Contour plot (right) is the absolute velocity magnitude
in all directions, and vector field (left) is the velocity projection on XZ plane
==PAGE:113==
D.5 Kinetic Model without pH Controller
95
D.5
Kinetic Model without pH Controller
0
0.5
1
1.5
2
2.5
3
3.5
4
Time [h]
0
10
20
30
40
50
60
70
Concentration [g/L]
X
S
Lactic Acid
Lactate
Figure D.15: Concentration profiles of Biomass (X), Substrate (S), lactic acid and lactate
during the fermentation, Simulated in MATLAB for the case of ideal mixing, full lines are
results with pH controller ON and dashed lines are results with pH controller OFF.
==PAGE:114==
96
D Results
0
0.5
1
1.5
2
2.5
3
3.5
4
Time [h]
0
0.05
0.1
0.15
0.2
0.25
0.3
0.35
0.4
Concentration [mol/L]
Sodium
Lactate+Lactic Acid
Figure D.16: Concentration profiles of sodium and lactate during the fermentation, Simulated
in MATLAB for the case of ideal mixing, full lines are results with pH controller ON and
dashed lines are results with pH controller OFF.
==PAGE:115==
D.5 Kinetic Model without pH Controller
97
0
0.5
1
1.5
2
2.5
3
3.5
4
Time [h]
2.5
3
3.5
4
4.5
5
5.5
6
6.5
pH
Figure D.17: pH profile during the fermentation, pH control setpoint at pH 6, Simulated
in MATLAB for the case of ideal mixing, full lines are results with pH controller ON and
dashed lines are results with pH controller OFF.
==PAGE:116==
98
==PAGE:117==
==PAGE:118==
