==PAGE:1==
Modelling of smoke detectors in Computational
Fluid Dynamics (CFD)
A study of the parameter settings of models
Master Thesis
DTU Construct
Department of Civil and Mechanical Engineering
==PAGE:2==
==PAGE:3==
Modelling of smoke detectors in Computational Fluid Dynamics (CFD)
A study of the parameter settings of models
Master Thesis
April, 2023
By
Daniel Salvadori Morassutti
Supervisor
Prof. Bjarne Paulsen Husted, Technical University of Denmark DTU
Co-supervisor
Karlis Livkiss, Dansk Brand- og sikringsteknisk Institut DBI
Copyright:
Reproduction of this publication in whole or in part must include the cus-
tomary bibliographic citation, including author attribution, report title,
etc.
Cover photo:
Richard Cassan, 2008
Published by:
DTU, Department of Civil and Mechanical Engineering, Koppels Allé,
Building 404, 2800 Kgs. Lyngby Denmark
https://construct.dtu.dk/
==PAGE:4==
Approval
This thesis has been prepared over six months at the Section of Design and Process,
Department of Civil and Mechanical Engineering, at the Technical University of Denmark,
DTU, in partial fulfilment for the degree Master of Science in Civil Engineering, MSc Eng.
Daniel Salvadori Morassutti - s210189
Signature
Date
ii
Modelling of smoke detectors in Computational Fluid Dynamics (CFD)
27/03/2023
==PAGE:5==
Abstract
In recent years, Performance Based Design (PBD) techniques have gained prominence
in fire safety design for buildings worldwide, allowing greater flexibility in fire detection
device placement. This thesis investigates the challenges and solutions for modelling smoke
detector responses using Computational Fluid Dynamics (CFD) simulations, such as the
Fire Dynamics Simulator (FDS), with the aim of enhancing the accuracy and reliability
of detection design tools for engineers in PBD scenarios.
The study examines the theoretical background of fire modelling and detection, focusing
on spot-type photoelectric detectors. A comprehensive literature review is conducted to
assess the suitability of existing experiments for replication in computational simulations.
In collaboration with Fire Eater A/S, a novel experiment with smoke detectors is de-
signed and executed, yielding mean activation times for various detector distances and
fuel diameters.
The modelling process in FDS involves several technical choices and uncertainties in in-
put property values, such as the soot yield value and the detector’s obscuration threshold.
Additional uncertainties were identified upon validating simulation results with the exper-
iment, extending beyond those reported in the literature. The study ultimately demon-
strates the utility of a bias factor representing smoke detector activation uncertainty for
design engineers, effectively addressing the thesis’s primary questions and highlighting the
significance of accurate and reliable calculation tools in PBD scenarios for optimizing fire
detection and safeguarding human lives and resources.
Modelling of smoke detectors in Computational Fluid Dynamics (CFD)
iii
==PAGE:6==
Acknowledgements
First and foremost, I extend my deepest thanks to my supervisor, Bjarne Husted, for
generously sharing his expertise in Fire Dynamics, CFD, and FDS. Your guidance has
been instrumental in my growth and success during this brief yet transformative period
of time.
I am also grateful to my co-supervisor, Karlis Livkiss, for his unwavering patience, constant
support, and invaluable insights throughout the process of crafting this thesis.
To Torbjørn and the incredible team at Fire Eater A/S, thank you for granting me access
to your exceptional testing facilities. Without your generosity, much of this thesis would
not have been possible.
I must express my appreciation to Tom Cleary for his openness and willingness to share his
experimental results and FDS input files, allowing me to expand my dataset for validation.
Your contributions to the field of detection have been truly impactful.
My heartfelt thanks go to my partner, Josephine Basthof, for the warmth and love you
and your family have provided, making even the darkest Danish winters feel bright.
And finally, I extend my deepest gratitude to all members of my family, both those who
are far away and those who are no longer with us.
Your love and support have been
my guiding light, despite the distance that separates us. To those I couldn’t bid a final
farewell to in recent years, you are forever etched in my heart, and your memory continues
to inspire me.
“No man ever steps in the same river twice, for it’s not the same river and
he’s not the same man.” ￿Heraclitus
iv
Modelling of smoke detectors in Computational Fluid Dynamics (CFD)
==PAGE:7==
Contents
Preface
. . . . . . . . . . . . . . . . . . . . . . . . . . . . . . . . . . . . . . . . .
ii
Abstract . . . . . . . . . . . . . . . . . . . . . . . . . . . . . . . . . . . . . . . . .
iii
Acknowledgements . . . . . . . . . . . . . . . . . . . . . . . . . . . . . . . . . . .
iv
1
Introduction
2
1.1
History of Fire Alarms and Smoke Detectors
. . . . . . . . . . . . . . . . .
2
1.2
The Role of Detection in Performance-Based Fire Safety Designs . . . . . .
2
1.3
Fire Signatures and Detector Types
. . . . . . . . . . . . . . . . . . . . . .
3
1.4
Ionisation Smoke Detection Mechanism
. . . . . . . . . . . . . . . . . . . .
5
1.5
Photoelectric Light Obscuration Detection Mechanism . . . . . . . . . . . .
5
1.6
Photoelectric Light Scattering Detection Mechanism . . . . . . . . . . . . .
6
1.7
Research Questions . . . . . . . . . . . . . . . . . . . . . . . . . . . . . . . .
7
1.8
Limitations . . . . . . . . . . . . . . . . . . . . . . . . . . . . . . . . . . . .
7
1.9
Thesis Structure
. . . . . . . . . . . . . . . . . . . . . . . . . . . . . . . . .
7
2
Overview of Smoke Detection Models
9
2.1
Zone Models Smoke Detection . . . . . . . . . . . . . . . . . . . . . . . . . .
10
2.2
Field or Computational Fluid Dynamics (CFD) Models
. . . . . . . . . . .
11
3
Smoke Detection Experiments
14
3.1
NIST Indiana Dunes Research Project, 1975-1977 . . . . . . . . . . . . . . .
14
3.2
Bukowski and Bright, 1975
. . . . . . . . . . . . . . . . . . . . . . . . . . .
15
3.3
Delichatsios, 1980 . . . . . . . . . . . . . . . . . . . . . . . . . . . . . . . . .
16
3.4
Spearpoint and Smithies, 1997
. . . . . . . . . . . . . . . . . . . . . . . . .
16
3.5
Naval Research Laboratory, 1999-2000 . . . . . . . . . . . . . . . . . . . . .
17
3.6
Gottuk and McKenna, 2002 . . . . . . . . . . . . . . . . . . . . . . . . . . .
17
3.7
NIST Performance of Smoke Alarms, 2008 . . . . . . . . . . . . . . . . . . .
17
3.8
Xtralis IT/Server Room Fire Test Demonstrations, 2008 . . . . . . . . . . .
18
3.9
NUREG-2180, 2016 . . . . . . . . . . . . . . . . . . . . . . . . . . . . . . . .
19
3.10 Jang and Hwang, 2020 . . . . . . . . . . . . . . . . . . . . . . . . . . . . . .
19
3.11 Cleary et al. 2021 . . . . . . . . . . . . . . . . . . . . . . . . . . . . . . . . .
20
3.12 Summary of Smoke Detection Experiments Reports . . . . . . . . . . . . . .
20
4
Experimental Setup Design
23
4.1
Test Room
. . . . . . . . . . . . . . . . . . . . . . . . . . . . . . . . . . . .
23
4.2
Fire Sources . . . . . . . . . . . . . . . . . . . . . . . . . . . . . . . . . . . .
23
4.3
Smoke Detectors . . . . . . . . . . . . . . . . . . . . . . . . . . . . . . . . .
27
4.4
Instrumentation . . . . . . . . . . . . . . . . . . . . . . . . . . . . . . . . . .
29
4.5
Results . . . . . . . . . . . . . . . . . . . . . . . . . . . . . . . . . . . . . . .
30
5
Modelling of Experiment Results in FDS
37
5.1
Geometry, Mesh Resolution and Boundary Conditions . . . . . . . . . . . .
37
5.2
Combustion Reaction, Burner and Heat Release Rate
. . . . . . . . . . . .
38
5.3
Devices
. . . . . . . . . . . . . . . . . . . . . . . . . . . . . . . . . . . . . .
41
6
Validation and Sensitivity Analysis
43
6.1
Experimental uncertainties
. . . . . . . . . . . . . . . . . . . . . . . . . . .
43
Modelling of smoke detectors in Computational Fluid Dynamics (CFD)
v
==PAGE:8==
6.2
Model uncertainties
. . . . . . . . . . . . . . . . . . . . . . . . . . . . . . .
44
6.3
Sensitivity Analysis of Key Input Parameters . . . . . . . . . . . . . . . . .
45
6.4
Validation - Updated Bias Factor . . . . . . . . . . . . . . . . . . . . . . . .
56
7
Conclusion
59
7.1
Future Work
. . . . . . . . . . . . . . . . . . . . . . . . . . . . . . . . . . .
59
Bibliography
61
A Appendix
65
A.1 Optical Density and Obscuration Threshold calculation
. . . . . . . . . . .
65
A.2 Power Dependence Assumptions
. . . . . . . . . . . . . . . . . . . . . . . .
68
vi
Modelling of smoke detectors in Computational Fluid Dynamics (CFD)
==PAGE:9==
List of Figures
1.1
Ionisation smoke detector mechanism [12] . . . . . . . . . . . . . . . . . . .
6
1.2
Light obscuration detector mechanism [13] . . . . . . . . . . . . . . . . . . .
6
1.3
Light scattering detector mechanism [13] . . . . . . . . . . . . . . . . . . . .
7
2.1
Smoke Detection Model by Schifiliti [18] . . . . . . . . . . . . . . . . . . . .
9
4.1
Fire Eater A/S [52] test room . . . . . . . . . . . . . . . . . . . . . . . . . .
24
4.2
Plan view of test room . . . . . . . . . . . . . . . . . . . . . . . . . . . . . .
24
4.3
Air inlet opening . . . . . . . . . . . . . . . . . . . . . . . . . . . . . . . . .
25
4.4
Pans with different diameters considered for the n-Heptane burning
. . . .
26
4.5
Mass loss rate of n-Heptane . . . . . . . . . . . . . . . . . . . . . . . . . . .
26
4.6
Heat Release Rate and Effective Combustion of n-Heptane . . . . . . . . . .
27
4.7
Esylux Protector K 9 V [54] . . . . . . . . . . . . . . . . . . . . . . . . . . .
27
4.8
Smoke Detectors and thermocouples mounted on the ceiling . . . . . . . . .
29
4.9
Instrumentation utilised in the fire tests . . . . . . . . . . . . . . . . . . . .
30
4.10 The data acquisition equipment . . . . . . . . . . . . . . . . . . . . . . . . .
31
4.11 Cotton fire source setup . . . . . . . . . . . . . . . . . . . . . . . . . . . . .
32
4.12 Thermocouple tree temperatures - Test 6
. . . . . . . . . . . . . . . . . . .
32
4.13 Boxplot of activation times - All tests
. . . . . . . . . . . . . . . . . . . . .
34
4.14 Activation times - Smoke detector replacement analysis
. . . . . . . . . . .
34
4.15 Activation times - Fire diameter analysis . . . . . . . . . . . . . . . . . . . .
35
4.16 Activation times - 24 cm diameter pan - No faulty detector
. . . . . . . . .
35
5.1
Model’s geometry view in PyroSim . . . . . . . . . . . . . . . . . . . . . . .
39
5.2
Burner model . . . . . . . . . . . . . . . . . . . . . . . . . . . . . . . . . . .
40
5.3
Heat Release Rates - All heptane tests . . . . . . . . . . . . . . . . . . . . .
40
5.4
Model generated and experimental HRR curves . . . . . . . . . . . . . . . .
41
5.5
Velocities at 3 m smoke detector after 12.5 seconds - 24 cm pan diameter
.
42
6.1
Validation of FDS Smoke Alarms - Linear . . . . . . . . . . . . . . . . . . .
45
6.2
Validation of FDS Smoke Alarms - Log scale
. . . . . . . . . . . . . . . . .
46
6.3
Activation times - Base case . . . . . . . . . . . . . . . . . . . . . . . . . . .
46
6.4
Activation times - Soot yield sensitivity analysis
. . . . . . . . . . . . . . .
48
6.5
Average measured temperature - 28 cm . . . . . . . . . . . . . . . . . . . .
49
6.6
Average temperature vs Model temperature - Base case 28 cm . . . . . . .
49
6.7
Average measured temperature - 24 cm . . . . . . . . . . . . . . . . . . . .
50
6.8
Average temperature vs Model temperature - Base case 24 cm . . . . . . .
50
6.9
Activation times - HRR sensitivity analysis
. . . . . . . . . . . . . . . . . .
52
6.10 Average temperature vs Model temperature - HRR +9 % . . . . . . . . . . .
52
6.11 Activation times - Mass extinction coeﬀicient sensitivity analysis
. . . . . .
54
6.12 Activation times - Obscuration threshold sensitivity analysis . . . . . . . . .
55
6.13 Validation of FDS Smoke Detector Activation Times . . . . . . . . . . . . .
56
Modelling of smoke detectors in Computational Fluid Dynamics (CFD)
vii
==PAGE:10==
List of Tables
1.1
Fire Signatures and Commercially Available Detectors [10] . . . . . . . . . .
4
3.1
Parameters considered for classification of Smoke Detection Experiments . .
14
3.2
Overview of Smoke Detection Experiment reports . . . . . . . . . . . . . . .
20
4.1
n-Heptane Heat Release Rates
. . . . . . . . . . . . . . . . . . . . . . . . .
27
4.2
Esylux detector sensitivity tests results . . . . . . . . . . . . . . . . . . . . .
28
4.3
Esylux detector obscuration thresholds . . . . . . . . . . . . . . . . . . . . .
28
4.4
Fire Eater test results
. . . . . . . . . . . . . . . . . . . . . . . . . . . . . .
31
4.5
n-Heptane experiments Heat Release Rates
. . . . . . . . . . . . . . . . . .
33
4.6
Experiment activation times . . . . . . . . . . . . . . . . . . . . . . . . . . .
35
5.1
Material properties inputted . . . . . . . . . . . . . . . . . . . . . . . . . . .
37
5.2
Grid sizes utilised for sensitivity study - 28 cm pan . . . . . . . . . . . . . .
38
6.1
Experimental uncertainties estimates . . . . . . . . . . . . . . . . . . . . . .
43
6.2
Base case activation times . . . . . . . . . . . . . . . . . . . . . . . . . . . .
46
6.3
Soot Yield sensitivity analysis scenarios
. . . . . . . . . . . . . . . . . . . .
47
6.4
Soot yield sensitivity analysis activation times . . . . . . . . . . . . . . . . .
47
6.5
HRR Sensitivity analysis scenarios . . . . . . . . . . . . . . . . . . . . . . .
51
6.6
HRR Sensitivity analysis activation times . . . . . . . . . . . . . . . . . . .
51
6.7
Mass extinction coeﬀicient sensitivity analysis scenarios
. . . . . . . . . . .
53
6.8
Mass extinction coeﬀicient sensitivity analysis activation times
. . . . . . .
53
6.9
Obscuration threshold sensitivity analysis scenarios . . . . . . . . . . . . . .
54
6.10 Obscuration threshold sensitivity analysis activation times . . . . . . . . . .
55
viii
Modelling of smoke detectors in Computational Fluid Dynamics (CFD)
==PAGE:11==
Nomenclature
Abbreviations
ASET Available Safe Egress Time
CFD
Computational Fluid Dynamics
DNS
Direct Numerical Simulation
FDE
Fire Detector Evaluator
FDS
Fire Dynamics Simulator
IR
Infrared
LED
Light-emitting diode
LES
Large Eddy Simulation
MAE Mean Absolute Error
PBD
Performance Based Design
RANS Reynolds-averaged Navier-Stokes
RMSE Root Mean Square Error
RSET Required Safe Egress Time
TGS
Taguchi gas sensor
VEWFD Very early warning fire detection
VISD Video Image Smoke Detection
List of Symbols
∆Heff Effective Heat of Combustion (kJ/g)
δ
Bias factor
µ
Mean
ρ
Density of air (kg/m3)
σ
Standard deviation
θ
True value
eσ2
E
Experimental relative standard deviation
eσ2
M
Model relative standard deviation
At
Activation time (s)
D
Optical density (-)
Du
Optical density per unit distance (m−1)
Dui
Optical density per unit length inside the detector chamber (m−1)
Du
Optical density per unit length outside the detector (m−1)
Modelling of smoke detectors in Computational Fluid Dynamics (CFD)
ix
==PAGE:12==
HRR Heat Release Rate (kW)
I
Attenuated light beam intensity (cd)
I0
Initial intensity of light beam (cd)
Km
Mass specific extinction coeﬀicient (m2/kg)
l
Distance between light source and sensor (m)
MLR Mass loss rate (g/s)
O
Obscuration (%)
Ou
Obscuration per unit distance (%/m)
u
Ceiling jet velocity (m/s)
Yc
Mass fraction of the smoke in the sensing chamber (kg/kg)
Modelling of smoke detectors in Computational Fluid Dynamics (CFD)
1
==PAGE:13==
1
Introduction
1.1
History of Fire Alarms and Smoke Detectors
Humans have always had a conflicted relationship with fire. Once the technology to control
it was developed, the advances it brought to society were massive. On the other hand, fire
also brought numerous property and life losses when not controlled. Due to the dynamics
of a fire’s growth and spread, it was clear that detecting and signalling a fire in its earlier
stages makes it much easier to control and extinguish it. For that reason, the first fire
alarms were created.
It is uncertain when the first fire alarm systems began, but before the advent of electricity,
the early towns relied on human sensory (visual, hearing, smell) detection and posterior
manual signalling through ringing bell towers [1], [2]. It was only during the XIX century,
following the invention of the telegraph, that the first alarm system was oﬀicially invented.
William F. Channing and his assistant Moses Farmer patented the “Electromagnetic Fire
Alarm Telegraph” on 19 May 1857 [3]. Even though it was an electric alarm, there was no
automatic detection accoupled to this device. It consisted of two boxes with a telegraphic
key and handle. In the advent of a fire, someone would have to crank the handle, and the
device would send an alert to the alarm station, where an operator would alert the fire
department.
It was only in 1890 that Francis Robben Upton patented the first fire alarm with automatic
detection based on the temperature rise above a certain point [4].
The first device operating on smoke detection was discovered by accident by Swiss physicist
Walter Jaeger in the late 1930s. Jaeger was working on a sensor to detect poison gas but
was failing.
In his frustration, Jaeger lit a cigarette, and to his surprise, his gadget
registered a drop in current, responding to the smoke. This was the discovery of the first
smoke detector [5].
1.2
The Role of Detection in Performance-Based Fire Safety
Designs
In recent years, countries worldwide have increasingly adopted Performance Based Design
techniques for fire safety design in buildings. Unlike prescriptive recommendations, these
techniques allow greater freedom in locating fire detection devices.
The correct placement of fire detectors allows for optimal quantification of devices to
ensure building evacuation before untenable conditions are reached.
When insuﬀicient detectors are designed, the Required Safe Egress Time (RSET) may be
greater than the Available Safe Egress Time (ASET), putting human lives at risk.
A recent study conducted by Runefors [6] revealed that smoke alarms in residential settings
accounted for an 84% and 62% reduction in mortality for individuals within the age groups
of 20-44 years and 45-64 years, respectively, in unintentional fires in Sweden.
Not only that, in industrial facilities, a slight delay in detection and alarm sounding can
cause an uncontrollable fire and, consequently, a major industrial disaster.
In the case of an overestimation of detectors, there is a risk of excessive expenses that
damage the contractor, generating a misallocation of resources that otherwise could have
2
Modelling of smoke detectors in Computational Fluid Dynamics (CFD)
==PAGE:14==
been allocated to other means of fire protection.
Due to these reasons, the engineers
responsible for Performance Based Designs need good accuracy and reliability in their
calculation tools for detection designs.
1.3
Fire Signatures and Detector Types
As mentioned in the previous section, smoke is not and has not been the only means to
detect a fire. Several different products resulting from a fire can change the surrounding
ambient conditions and be used for detection; Custer called these products fire signatures
[7].
The fire signatures can be divided into:
• Energy Release Signatures
• Gas Signatures
• Aerosol Signatures
For a signature to be relevant in a detection mechanism, the signal-to-noise ratio must
be greater than the typical environmental variations. A fire must produce enough of the
specified signature so the detector sensor would perceive an unusual disturbance and,
consequently, trigger the alerting/notification system.
1.3.1
Energy Release Signatures
Throughout its course, fire constantly irradiates energy to the surrounding environment.
This electromagnetic radiation is emitted, usually from the Infrared (IR) to the Ultraviolet
(UV) region of the electromagnetic spectrum.
The combustion reaction increases the energy of the stable molecules involved, breaks
their bonds and creates free radicals. In this process, UV and visible light (280-570 nm)
radiation are emitted to equilibrate the discrete energy levels that the electrons can assume
in the atomic orbit. Also, combustion produces compounds such as CO, CO2 and water
vapour that emit IR radiation due to their increase in kinetic energy.
Moreover, detectors can respond to the convected thermal energy of a fire. It is the case
of heat detectors that can activate due to reaching a fixed threshold temperature or the
rapid rate of temperature change.
Several sources of nuisance, both artificial and natural, can disturb a sensor’s energy release
detection, such as hot objects and sunlight. The flame flickering of a fire can be used to
modulate and improve the signal-to-noise ratio, as it is known that the flame oscillations
are in frequencies ranging from 0.5-15 Hz, and the radiation emitted is expected to have
similar frequencies. Recent advances in Artificial Intelligence have also been shown to
increase the precision of IR detectors, as shown by Xavier and Nanayakkara [8], by filtering
human motion nuisance through a Deep Neural Network algorithm.
1.3.2
Gas Signatures
Furthermore, the combustion reaction absorbs and produces different gases during its
occurrence. The addition or consumption of these gases changes their concentration in
the surrounding atmosphere, making it possible to characterise a fire signature. Typically,
these fire signatures are the expected products in combustion, such as CO2 and CO,
whereas the consumption of oxygen results in a characteristic reduction of its content.
Nevertheless, other gas signatures may be more appropriate in the case where it is known
beforehand that some specific fuels are present in the location, including H20, HCl, HCN,
HF, H2S, NH3 and nitrogen oxides.
Modelling of smoke detectors in Computational Fluid Dynamics (CFD)
3
==PAGE:15==
1.3.3
Aerosol Signatures
Additionally, every combustion process releases small solid and liquid particles into the
atmosphere, ranging in size from 5x10−4 ￿m to 10 ￿m. As they are suspended in the air,
they are called aerosols.
The quantity and characteristics of the aerosol generated in a fire depend on the fuel com-
position (material being burned), the combustion state (incipient, smouldering or flaming)
and the amount of dilution with air, coagulation from Brownian motion and surface depo-
sition [9]. It is well established that depending on these characteristics mentioned above,
a specific type of detector can better respond to the aerosol generated than other types.
The details governing this detection difference will be further explored in the following
sections of this thesis.
1.3.4
Detector Types
By utilising the fire signatures discussed above, detectors are designed using different
technologies to identify a signal and trigger a response free of nuisances. There are several
detectors available in the market. Table 1.1, extracted from the SFPE Handbook of Fire
Protection Engineering [10], summarises the most common ones as well as the fire signature
to which they respond.
Table 1.1: Fire Signatures and Commercially Available Detectors [10]
Fire signature/
detector type
Electromagnetic
Radiation
Wave Length
1700 to 2900
Angstroms
Electromagnetic
Radiation (thermal)
6500 to 8500
High
Concentrations of
Particles Less Than
0.3 Micrometers
in Diameter
Low to high
Concentrations of
Particles Greater than
0.3 Micrometers
in Diameter
Rapid Change in
Temperature
High
Temperature
Ultraviolet detector
X
-
-
-
-
-
Infrared detector
-
X
-
-
-
-
Submicron
particle detector
Wilson cloud chamber
-
-
X
-
-
-
Infrared particle
detector
-
-
-
X
-
-
Smoke detector
Photoelectric
-
-
-
X
-
-
Ionization
-
-
X
-
-
-
Photo beam
-
-
-
X
-
-
Rate-of-rise
heat detector
-
-
-
-
X
-
Rate anticipation
heat detector
-
-
-
-
-
X
Fixed temperature
heat detector
-
-
-
-
-
X
Some devices combine sensors for different fire signatures into one single detector, for
example, smoke + heat detectors, smoke + heat + CO detector, and so on.
The operation principle of the most commonly found types of smoke detectors is defined
in NFPA 72 [11]:
• Cloud Chamber Smoke Detection
The principle of using an air sample drawn from the protected area into a high-
humidity chamber combined with a lowering of chamber pressure to create an envi-
ronment in which the resultant moisture in the air condenses on any smoke particles
present, forming a cloud. The cloud density is measured by a photoelectric principle.
The density signal is processed and used to convey an alarm condition when it meets
preset criteria.
• Ionisation Smoke Detection
The principle of using a small amount of radioactive material to ionise the air between
two differentially charged electrodes to sense the presence of smoke particles. The
4
Modelling of smoke detectors in Computational Fluid Dynamics (CFD)
==PAGE:16==
presence of smoke particles decreases the conductance of the air by reducing ion
mobility, which will produce an alarm condition when it meets preset criteria.
• Photoelectric Light Obscuration Smoke Detection
The principle of using a light source and a photosensitive sensor onto which the
principal portion of the source emissions is focused. When smoke particles enter the
light path, some of the light is scattered and some is absorbed, thereby reducing the
light reaching the receiving sensor. The light reduction signal is processed and used
to convey an alarm condition when it meets preset criteria.
• Photoelectric Light-Scattering Smoke Detection
The principle of using a light source and a photosensitive sensor arranged so that
the rays from the light source do not normally fall onto the photosensitive sensor.
When smoke particles enter the light path, some of the light is scattered by reflection
and refraction onto the sensor. The light signal is processed and used to convey an
alarm condition when it meets preset criteria.
• Video Image Smoke Detection (VISD)
The principle of using automatic analysis of real-time video images to detect the
presence of smoke.
Detectors can also be classified based on their coverage area characteristics, e.g. spot,
linear or volume types. Generally, ionisation or photoelectric light-scattering spot-type
detectors are used in residential buildings, while linear-type photoelectric light obscuration
is often used in large compartments. Their operation mechanism is further described in
the following sections.
1.4
Ionisation Smoke Detection Mechanism
As mentioned above, the basic detection mechanism of an ionisation detector consists of
a radioactive element emitting alpha particles in a chamber containing positive and neg-
atively charged plates. Common elements utilised as the radiation source are Americium
241 or Radium 226. The strength of the sources ranges from 0.05 to 80 microcuries [7].
The alpha radiation released in the chamber hit the oxygen and nitrogen molecules in the
air between the electrodes, ionising them. The positively-charged ions are attracted to the
negative plate, and the negatively-charged ions are attracted to the positive plate causing
a small constant current to flow.
Once the smoke enters the chamber, the aerosol particles interact and bond with the
ionised air, decreasing the electric current and activating the alarm. Figure 1.1 shows a
schematic representation of a typical ionisation smoke detector.
1.5
Photoelectric Light Obscuration Detection Mechanism
Photoelectric light obscuration detectors utilise a light source and a photosensitive device
(Figure 1.2).
When smoke is present, the light beam path is blocked, and the photosensitive device
changes its resistance, thus, altering the electric circuitry and triggering the alarm. The
term obscuration might not be the most precise to describe the phenomena, with some
authors suggesting the term light attenuation, as the light can be absorbed, reflected or
refracted by the smoke [10].
Historically, the light source utilised in most applications was an incandescent bulb; how-
ever, nowadays, the typical source is a light-emitting diode (LED), as modern LEDs have
Modelling of smoke detectors in Computational Fluid Dynamics (CFD)
5
==PAGE:17==
Figure 1.1: Ionisation smoke detector mechanism [12]
the capability to provide suﬀicient light intensity with low current requirements [7], [13].
It is possible to use either a photovoltaic, a photocurrent, or a photoresistive device for
the photosensitive element, but the usual is a photodiode measuring the current.
Despite the fact that this type of mechanism is more common in large areas where the light
source is fixed at one end and the sensitive device on the other, there are also spot-type
detectors that are based on light obscuration.
Figure 1.2: Light obscuration detector mechanism [13]
1.6
Photoelectric Light Scattering Detection Mechanism
As with photoelectric light obscuration detectors, a light source and a photosensitive
device are also required for light scattering detectors. The principle differs a little, as the
photosensor is not normally receiving the light but is at an angle with the light beam path
(Figure 1.3). As the aerosol particles enter the light path, light is scattered and reflected to
the sensor, changing its current, voltage or resistance and causing the detector to respond.
Light scattering and obscuration theories have been extensively studied over the past
century and can be examined in more detail in [14], [15]. The most utilised theories state
that the intensity of the light scattered is a function of the incident light wavelength and
the aerosol particle size.
For small particles (up to 0.05 times the wavelength of the incident light), the scattering
theory developed by Rayleigh points out that the amount of light scattered is directly
proportional to the second power of the volume of the particle and is inversely proportional
to the fourth power of the wavelength of the light [16].
6
Modelling of smoke detectors in Computational Fluid Dynamics (CFD)
==PAGE:18==
Figure 1.3: Light scattering detector mechanism [13]
For particles up to 0.8 times the wavelength of light, Mie’s theory [17] defines the scattered
field of an optically isotropic sphere of known refractive index as a spherical wave consisting
of two groups of partial waves. To apply these theories, however, one must assume that
smoke particles are homogeneous spheres of known refractive index, which is not always
the case.
Light scattering is the most common type of spot-type smoke detector and will be the
focus of the study in this thesis.
1.7
Research Questions
• How accurately do current Fire Dynamics Simulator (FDS) smoke detector models
represent reality?
• Is it possible to alter the parameters and increase the agreement between the exper-
iment and the model?
1.8
Limitations
The research will be limited to a specific type of smoke detector, the spot-type photoelectric
light-scattering smoke detector, as it is the most commonly found device and, therefore,
subjected to most Performance Based Design dimensioning.
The analysis is limited to the Fire Dynamics Simulator, as other Computational Fluid
Dynamics software apply different models to the calculation of phenomena discussed here.
The study will not focus on the detector’s smoke response model as no current model in
the literature represents this behaviour.
1.9
Thesis Structure
The method employed to address the questions raised is divided into the following steps:
• Introduce current smoke detection models;
• Conduct a literature review of smoke detector experimental reports to assess their
suitability for subsequent simulation in FDS;
• Through the review of experiments, design a new smoke detector experiment to be
carried out to gain comprehensive knowledge of the variables involved and increase
the potential for parameter modification;
Modelling of smoke detectors in Computational Fluid Dynamics (CFD)
7
==PAGE:19==
• Examine the experimental results and simulate them in FDS;
• Assess which parameters are most critical in accurately representing reality and
should be given greater consideration by the designer during software simulation.
8
Modelling of smoke detectors in Computational Fluid Dynamics (CFD)
==PAGE:20==
2
Overview of Smoke Detection Models
To accurately predict the response of a smoke detector is a complex task. Not only the
smoke detector must be modelled, but also the fire and smoke must be taken into account.
This can be seen by the way Schifiliti [18] divided the smoke detection model into sub-
models, as shown in the image below:
Figure 2.1: Smoke Detection Model by Schifiliti [18]
Depending on the smoke production model, the smoke aerosol characteristics can signifi-
cantly change and impact the whole detection model. The smoke production is a function
of the fuel composition, combustion state (smouldering or flaming), degree of vitiation of
combustion air and ventilation, and these parameters can alter the particle size distribu-
tion, concentration, morphology and refractive index [10].
The smoke dynamics model will be defined by how the fire grew and spread, the fuels
included, and ventilation conditions change over time [10].
The smoke transport model should be able to account for the changes to aerosol charac-
teristics due to time and distance from the fire source, dilution and transport time. These
changes are caused by gravitational, turbulent diffusion and thermophoresis transport
mechanisms, and coagulation [19]. The transport time from the source to the detector is
also notably affected by the geometry of the enclosure, such as ceiling height, configuration
and barriers [10].
A smoke entry model refers to how easy it is to pass the smoke through the detector housing
and reach the sensor. Lastly, the sensor response to the smoke must also be modelled. It
also responds to aerosol characteristics, such as the amount and size of particles within an
ionisation detector’s chamber or their amount and reflective properties in a photoelectric
detector [10].
Each of these parameters is diﬀicult to establish and could be the object of a thorough
study by themselves, and therefore, are usually not considered in most current detection
computer models. Instead, smoke detectors are normally modelled as rate-of-rise heat
detectors, or the amount of smoke is correlated to an optical density and percentage of
obscuration/attenuation per unit distance. It is a correlation because, as discussed in the
Modelling of smoke detectors in Computational Fluid Dynamics (CFD)
9
==PAGE:21==
previous section, the activation mechanism does not respond to light attenuation (except
for photoelectric light obscuration detectors). Equations 2.1-2.4 are used to determine
these properties.
Smoke detector manufacturers usually do not provide information on the threshold value
of optical density in which their device will activate; instead, they will submit the device
to standardised laboratory tests intending to obtain the certification to sell their products
(normally Underwriters Laboratories UL-217 and UL-268 in the US and EN 14604 in
Europe). An effort to establish alarm thresholds for different types of fuels and detectors
was conducted by Geiman and Gottuk in 2003. The authors concluded that an optical
density of 0.14 m−1 provides a reasonable estimate of when a majority of smoke detectors
will alarm [20].
The percentage of obscuration is given by:
O = 100

1 −I
I0

(2.1)
And the percentage of obscuration per unit distance:
Ou = 100
"
1 −
 I
I0
1/l#
(2.2)
It is possible to find optical density calculations in the literature with different logarithm
bases, which may be confusing. Since most modelling software use base 10, it will be used
in this thesis. The optical density D is:
D = log10
I0
I

= −log10
 I
I0

(2.3)
And the optical density per unit distance:
Du = D
l = 1
l log10
I0
I

= −1
l log10
 I
Io


m−1
(2.4)
Where:
I0 is the initial intensity of light beam reaching the photocell (cd);
I is the attenuated light beam intensity (cd);
l is the distance between the light source and sensor (m).
2.1
Zone Models Smoke Detection
The so-called two-zone fire models or “Zone Models” software, such as CFAST [21] from
NIST and Argos [22] from DBI, utilise these methods for smoke detector activation. The
user can input an activation sensitivity, and the device responds when the smoke concen-
tration reaches the threshold.
A zone model works by dividing the compartment into two zones, an upper layer and a
lower layer resulting from thermal stratification due to buoyancy. Conservation of mass,
energy and species equations are applied to each zone, and the interaction between them
results from transport submodels.
The activation inside the fire room is calculated utilising Alpert’s model [23] ceiling jet
equation to obtain its velocity and, thus, the time to reach the detector. Outside the fire
room, the zone models apply pressure balance calculation or assume constant velocity;
therefore, under these circumstances, the results must be carefully evaluated by someone
who understands the model’s limitations.
10
Modelling of smoke detectors in Computational Fluid Dynamics (CFD)
==PAGE:22==
2.2
Field or Computational Fluid Dynamics (CFD) Models
On the other hand, field or Computational Fluid Dynamics (CFD) models are the most
sophisticated deterministic models for simulating enclosure fires [24]. In a CFD model
software, the volume of interest is divided into many subvolumes or cells, and the model
solves the equations of fluid physics (mass, energy and momentum conservation) inside
each cell.
The model can solve for the viscous forces acting on the fluid, or the models can ignore
the viscous forces (inviscid). The inviscid approach, although faster, cannot capture the
effects of turbulent mixing and dilution of species and therefore is not useful for smoke
detection purposes [25]. The substitution of the viscous stress components in the fluid
flow into the momentum equation yields the Navier-Stokes equations, and their solution
is the key purpose of field models.
Currently, there are two main approaches to CFD simulations of fires: Direct Numerical
Simulation (DNS) and non-DNS. DNS has very limited use since it requires very small
grid cells; thus, non-DNS models are more common for most use cases. Non-DNS models
can also be classified into two approaches: Large Eddy Simulation (LES) and Reynolds-
averaged Navier-Stokes equations (RANS). These approaches refer to the models applied
to the unresolved subgrid dissipative processes.
One of the most utilised software in fire safety designs is an LES model, the Fire Dynamics
Simulator (FDS), created, maintained and disseminated by NIST [26].
The FDS Technical Reference Guide, however, makes a caveat about smoke detector mod-
elling:
“Most computer models, including FDS, do not provide detailed descriptions
of the smoke besides its bulk transport. This last point is the most important.
At best, in its present form, FDS can only calculate the velocity and smoke
concentration of the ceiling jet flowing past the detector.
Regardless of the
detailed mechanism within the device, any activation model included within
FDS can only account for the entry resistance of the smoke due to the geometry
of the detector. Issues related to the effectiveness of ionization or photoelectric
detectors cannot be addressed by FDS.” [26]
This means that contrarily to zone models, FDS does calculate the velocity of the smoke;
however, on the left-hand side of Figure 2.1, the user has control only over the Smoke
Entry Model.
2.2.1
Smoke Entry Models
Two different smoke entry models for spot-type detectors can be employed in FDS to
address the entry lag of smoke into the detector housing, Heskestad model [27] and Cleary
Model [28]. They both work on the principle that the optical density inside the detector
housing will always be less than the outside optical density.
Heskestad suggested that this lag time is characterised by a detector time constant τ = L/u
where L is the detector’s geometry characteristic length and u is the velocity of the ceiling
jet flowing past the detector, or free stream velocity. The equation of entry resistance is
expressed as:
dDui
dt
= Du −Dui
τ
(2.5)
Modelling of smoke detectors in Computational Fluid Dynamics (CFD)
11
==PAGE:23==
Where:
Dui = Optical density per unit length inside the detector chamber;
Du = Optical density per unit length outside the detector.
Equation 2.5 has a solution if τ and the rate of rise of external optical density are constant,
and as postulated by Heskestad, τ = L/u:
Dur = Duo + L
u
dDu
dt
 h
1 −e−Dur u
L( dDu
dt )i
(2.6)
Where:
Dur = Optical density outside the detector at response;
Duo = Optical density response threshold.
When dDu
dt
<< Dur/(L/u), the exponential term is small and we get the approximation
given by Heskestad [27]:
Dur = Duo + L
u
dDu
dt

(2.7)
The FDS Technical Reference Guide [26] utilised a different terminology for Heskestad’s
model, naming the rate of change in the mass fraction of the smoke in the sensing chamber
(Yc) instead of optical density:
dYc
dt = Ye(t) −Yc(t)
L/u
(2.8)
The smoke detector will activate when Yc rises above a detector response threshold.
Cleary et al. [28], while working on Heskestad’s concepts and measuring entry resistances
on lower velocities, came up with the idea of two different lag times contributing to the total
lag on smoke detector activation: the dwell time (δt), which is the time delay difference
between when smoke reaches the outside of the detector to the time the detector initially
senses smoke and the characteristic mixing time (τ) for the smoke to mix in the sensing
chamber [10]. Heskestad intended to describe a dwell time, however his equations are
formulated based on a mixing time [29].
The dwell time and mixing time are both function of the smoke flow rate ˙m, and can be
expressed by [28]:
δt = LeρA
˙m
≈αeuβe
e
(2.9)
and
τ = ρV
˙m ≈αcuβc
e
(2.10)
Where:
ρ is the density of air (kg/m³);
α and β are proportionality constants that account for the detector geometry.
Cleary model is currently employed in FDS and suggested values for the constants can be
found in FDS User’s Guide [30]. And then, again, following the FDS Technical Reference
Guide nomenclature:
dYc
dt = Ye(t −δte) −Yc(t)
δtc
(2.11)
Where τ = δtc and δt = δte.
FDS then integrates this equation numerically and converts it to an expression for the
percent obscuration per unit length.
12
Modelling of smoke detectors in Computational Fluid Dynamics (CFD)
==PAGE:24==
This conversion is obtained by using the natural logarithm in Equation 2.4. This quantity
is then called the light extinction coeﬀicient, K.
It is a product of the mass specific
extinction coeﬀicient, Km, which is fuel dependent, and the density of smoke particulate,
Ys.
−1
l ln
 I
Io

= K = KmρYs
(2.12)
The obscuration per unit length is thus obtained:
OBS =
 1 −e−KmρYs
× 100 % per meter
(2.13)
The mass extinction coeﬀicient Km has a default value of 8700 m2/kg on FDS.
Modelling of smoke detectors in Computational Fluid Dynamics (CFD)
13
==PAGE:25==
3
Smoke Detection Experiments
Several experiments containing smoke detector data have been selected from the litera-
ture to be considered potential data for simulating in FDS. The experiments have been
classified based on their reporting of certain parameters, including information about the
test environment, the fire characteristics, and the smoke detectors.
These parameters
are crucial for ensuring that the data from the experiments are relevant and accurate for
simulation. A summary of these parameters is provided in Table 3.1.
Regarding the detailed information about the test environment, the experiments should
report the room’s dimensions, the materials used for walls and other obstructions, and
the location of the smoke detectors, as these can determine the barriers the smoke can
encounter during its flow.
The characteristics of the fire that was used in the experiment must also be considered.
It is important to know the combustion material used, as well as whether the fire was
a smouldering or flaming fire. The fire’s heat release rate (HRR) is also an important
factor to consider, as this is an input that can affect the smoke’s behaviour and the smoke
detectors’ performance in FDS.
Ultimately, it is essential to carefully review the experiment’s results, particularly the
smoke detectors’ response time.
This information can be used to determine whether
the data from the experiment is suitable to be compared with the simulation results.
Experiments that report clear and comprehensive results are more likely to provide reliable
data for simulation.
An overview of the experiments is presented chronologically in the following sections.
Table 3.1: Parameters considered for classification of Smoke Detection Experiments
Parameter
Description
Geometry
Dimensions of the test room, materials used for walls
and obstructions
Fire
Combustion material, type of fire (smouldering or flaming),
HRR, location
Smoke
detectors
Activation obscuration or sensitivity, location
Results
Tabulated report on response time of the smoke detectors
in the specific test environment
3.1
NIST Indiana Dunes Research Project, 1975-1977
The famous NIST (then known as the National Bureau of Standards) Indiana Dunes
Research Project was a series of full-scale residential fire tests conducted in its first phase
in 1975 by Bukowski et al.[31] and its second phase by Harpe et al. in 1977 [32]. Due to
its richness in the detailed description, this experiment remained one of the best sources of
residential smoke alarm data for several years. Phase II of the experiment was performed
to gather information on fires under no air conditioning conditions.
The experiment expressed the slightly better response of photoelectric smoke detectors to
smouldering fires and ionisation smoke detectors’ slightly better response to flaming fires.
14
Modelling of smoke detectors in Computational Fluid Dynamics (CFD)
==PAGE:26==
However, since the difference was minimal, the authors emphasised that there were no
apparent advantages between the technologies regarding life-saving potential.
• Room Geometry: The tests were conducted in three different two-story brick
buildings, the J.R. Whitehouse test site, the Lakeshore test site and the Wabash
Avenue site. The room dimensions are not explicitly stated, but there are floor plans
available in which one can get a good approximation of the experiment geometry.
• Fire: The fire was initiated in different locations of the test sites. Both smouldering
and flaming fires were tested. Mostly, the material burned was furniture commonly
available at the time, and a brief description of the material is given in a narrative
form.
• Smoke detectors: Underwriters Laboratories Inc. tested detectors’ sensitivities
before the full-scale tests and their actual results are registered in the report (ranging
from 0.61 to 3.43%/ft). The detectors’ working mechanism (dual chamber, light-
scattering, etc.) and location are also available.
• Results: The results of the 76 fire tests are reported in tables, data sheets and
curves. The report also provides escape times and tenability for each specific fire
situation.
This experiment contains all parameters necessary to be considered suitable for simulation,
yet, it was not chosen to be, as it is not completely precise in the test room geometry,
which in addition to the presence of air conditioning, could add too many uncertainties to
the simulation results.
3.2
Bukowski and Bright, 1975
Bukowski and Bright [33] performed a series of full-scale tests to determine whether pho-
toelectric smoke detectors could respond to the same standardised test fires used to assess
the performance of ionisation smoke detectors.
This experiment was historically important for being one of the firsts to define the differ-
ences between the detection response between the two different technologies, suggesting
modifications in standardised fire testings that would result in a later combination of the
UL-167 [34] and UL-168 [35] standards into UL-217 [36] and UL-268 [37].
• Room Geometry: The tests were conducted in a large open space of 18 m x 18 m
x 5 m.
• Fire: The fire was located in the middle of the room, 1.2 m above the floor. The
experiment utilised six fire materials: Shredded paper, polystyrene, gasoline, wood
brand, cotton and polyurethane. Apart from the smouldering cotton fire, all com-
bustions were flaming fires.
• Smoke detectors: Eleven smoke detectors were utilised, eight photoelectric, two
ionisation and one Taguchi gas sensor (TGS). The light-obscuration sensitivities
ranged from 0.5 to 2.5%/ft.
• Results: The results of the 26 fire tests are reported in tables and charts.
These tests contain all parameters to be considered for simulation in FDS.
Modelling of smoke detectors in Computational Fluid Dynamics (CFD)
15
==PAGE:27==
3.3
Delichatsios, 1980
Delichatsios [38] performed a series of tests to investigate the effects of forced ventila-
tion and temperature stratification on detecting flaming and smouldering fires. Also, it
attempted to specify spacing requirements of smoke detectors for flaming cable fires in
rooms with flat and beamed ceilings and corridors. This work was especially relevant due
to its consideration of smoke stratification effects on the detector response.
The most relevant tests to evaluate smoke detector response were conducted in the corridor
test site and the information in the following sections is regarding these.
• Room Geometry: The general view of the corridor is represented in the report
and shows dimensions of 12.2 m x 1.22 m x 2.44 m. The corridor was assembled
with 32 interlocking plywood panels.
• Fire: The fuel utilised in this experiment was pieces of XPE/neoprene cable cut
into 15 cm lengths. Both flaming and smouldering fires were tested. Acetone was
also used to sustain a flaming condition for the flaming fires.
The fire location
is approximately in the centre of the corridor. Although the fuel material can be
challenging to model, the report also provides HRR values during the detection.
• Smoke detectors: Eighteen smoke detectors were installed in the corridor ceiling,
nine of which were ionisation and nine photoelectric types. The average values of
optical density at response are provided.
• Results: The results of the 9 fire tests are reported in tables and charts.
Although Delichatsios report the parameters necessary to simulate in FDS, the fuel mate-
rial can be challenging to model since it consists of electric cables of complex composition.
The HRR is insuﬀicient to correctly model the fire, as information regarding the smoke
generation (such as the soot yield) is needed and would be of diﬀicult estimation.
3.4
Spearpoint and Smithies, 1997
Spearpoint and Smithies [39] conducted eleven fire tests to examine the performance of
smoke detectors. They utilised analogous ionisation and photoelectric sensors and com-
pared their response with the actual spot-type smoke detectors complying with BS/EN/ISO
and U.S. (UL) standards. It also studied the visibility conditions and optical densities.
• Room Geometry: Unfortunately, probably due to limited space, there is no men-
tion of the room geometry in this paper; the only statement is that the tests were
selected to match BS 5445 or ISO standards.
• Fire: The materials utilised included pine wood, polyurethane foam, cotton wick,
heptane and cooking oil. Both smouldering and flaming fires were tested. The fire
location is also indicated in the report.
• Smoke detectors: During the tests, ionisation and photoelectric with sensitivities
complying with BS/EN/ISO and UL 217/268 standards were utilised.
• Results: The smoke detector and sensor time responses are reported in a table
format.
Due to the lack of information regarding the room geometry, this experiment is not con-
sidered suitable for simulation.
16
Modelling of smoke detectors in Computational Fluid Dynamics (CFD)
==PAGE:28==
3.5
Naval Research Laboratory, 1999-2000
The U.S. Navy tests [40], [41] were two series of experiments attempting to develop a new
multi-criteria early warning fire detection system. With real-scale laboratory testing, the
navy investigations were able to evaluate the impacts of several real and nuisance sources
in different fire scenarios. A vast number of fire tests were performed, providing a valuable
and detailed database for future research.
• Room Geometry: The first series of tests were conducted in a room with dimen-
sions 4.1 m x 6.5 m x 3.6 m. The second series was conducted onboard the ship
SHADWELL and its dimensions are not available in the original report but are
mentioned in Geiman and Gottuck [20] as approximately 8.5 m x 8.5 m x 3 m.
• Fire: The materials utilised included ordinary shipboard combustibles such as oily
rags, cardboard, paper, sheets, mattresses and flammable liquids. Both smouldering
and flaming fires were tested. The fire location is also indicated in the report.
• Smoke detectors: During the tests, ionisation and photoelectric smoke detectors
with different sensitivities (ranging from 0.82 – 11%/m) were used.
• Results: The smoke detector response of the 126 room fire tests and 29 ship fire
tests are reported in tables and charts.
The second phase of this project, conducted by Wong et al. [41], is unsuitable for simula-
tion due to the challenging estimation of the SHADWELL ship geometry. The first phase,
conducted by Gottuk et al. [40] has a large number of tests performed, and the required
parameters are all reported, making it suitable for simulation.
3.6
Gottuk and McKenna, 2002
In 2002, Gottuk and McKenna [42] conducted 53 full-scale tests in a large telecommuni-
cations oﬀice to compare spot-type to aspirated smoke detectors. Different source types,
locations and ventilation conditions were tested. The detection spacing was also compared
with two independent loops of 200 and 400 ft2 per detector.
• Room Geometry: The large oﬀice was one entire floor of a three-story building,
with dimensions of 100 ft x 180 ft x 15.5 ft.
• Fire: The fire materials utilised were mainly wire and cable samples, as these were
the most common sources, according to reports of past fire incidents in telecommu-
nication facilities. The fire locations are also shown in the paper.
• Smoke detectors: Two different laser-based smoke detectors were evaluated: spot-
type and aspirated smoke detectors. Their location and sensitivity (0.05%/ft Pre-
Alarm and 0.1%/ft Alarm) are stated in the article.
• Results: The smoke detector time responses are reported in a table format.
This experiment, similar to what was mentioned in Delichatsios, would have too many
uncertainties when simulating the complex fuel sources, the electric cables. For this reason,
it is not suitable for simulation.
3.7
NIST Performance of Smoke Alarms, 2008
NIST [43] performed new real-scale tests in residential structures almost thirty years after
the Indiana Dunes tests. With extensive instrumentation, the test results are utilised in
Modelling of smoke detectors in Computational Fluid Dynamics (CFD)
17
==PAGE:29==
fire safety designs worldwide, including the smoke detector validation in the Fire Dynam-
ics Simulator [44]. It reiterated the faster response of photoelectric smoke detectors to
smouldering fires and the better response of ionisation smoke detectors to flaming fires.
The study was also important to establish standard nuisance alarm sources inclusion in
performance tests and expressed a significant decrease in escape times compared to the
Indiana Dunes experiment due to the materials employed in modern furniture.
• Room Geometry: The geometry of the homes where the tests were conducted is
described in detail in the report, including floor plan drawings, furniture dimensions
and materials.
• Fire: The tests were performed with different fire locations for smouldering and
flaming fires. The criteria of first ignition source were the most frequently observed
residential fires and fires resulting in the greatest number of deaths. Those included
upholstered furniture, mattress and cooking materials. Several nuisance sources were
also tested.
• Smoke detectors: All smoke alarms utilised in the experiments met the require-
ments of test standard UL 217 [36] and were calibrated prior to field tests. Their
sensitivities and locations are described in the report.
• Results: A detailed discussion of test SDC05 is included in the report, and refer-
ences [45] and [46] include the complete result data for all 36 tests.
The NIST Smoke Alarm experiment report contains all parameters necessary to conduct a
simulation and is currently used to validate the smoke detector algorithm in FDS. Hence,
these experiments must be considered in order to compare any improvements made to
smoke detector models.
As of now, its FDS input files can be found under the FDS
directory fds/Validation/NIST_Smoke_Alarms/FDS_Input_Files.
3.8
Xtralis IT/Server Room Fire Test Demonstrations, 2008
Xtralis [47] performed a series of tests in their Test Facility IT/server room to demon-
strate the very early warning of their VESDA smoke detection system. There are several
challenges in IT/server rooms, as they are usually highly ventilated areas that can cause
dilution or stratification of the smoke. Also, the typical electronic devices present in the
room operate at elevated temperatures, creating fire risk to any fuel source nearby. The
results compared VESDA and conventional spot-type smoke detectors, demonstrating the
superior performance of the former for this specific application.
• Room Geometry: A floor plan of the test room is provided, along with the venti-
lation ducts and cabinets.
• Fire: Three fire scenarios were chosen: Overheated PVC wire, overheated resistor
and smouldering smoke pellet.
These sources were placed in varied locations in
different tests.
• Smoke detectors: The VESDA system had alert, action, alarm 1 and 2 thresholds
of obscuration 0.03%/m, 0.065%/m, 0.1%/m and 2.0%/m, respectively. The spot-
type detector alarm threshold was set to 1.4%/m.
• Results: The activation times are reported in tables. However, the spot-type de-
tectors could not detect fire in any session of the seven tests performed.
The Xtralis tests include information necessary to simulate them in FDS. Nevertheless,
the smoke sources are also challenging to replicate in the Fire Dynamics Simulator. Also,
18
Modelling of smoke detectors in Computational Fluid Dynamics (CFD)
==PAGE:30==
the spot-type smoke detectors could not detect the fires in time. Since those are the main
objective of this thesis, this experiment is unsuitable for simulation.
3.9
NUREG-2180, 2016
The Nuclear Regulatory Commission [9] conducted a series of experiments to test the
responsiveness and effectiveness of aspirating smoke detection systems and make compar-
isons to conventional spot-type detectors. Since the interest was in nuclear power plants,
the main objective of this research was to provide information regarding low-energy fires
in their early stages (pre-flaming), as these facilities should operate with the highest stan-
dards of safety, not allowing a fire to develop further. For this reason, very early warning
fire detection (VEWFD) systems were installed in enclosures with electrical equipment
typical of nuclear power plants.
• Room Geometry: The experiments were conducted at three different facilities, a
laboratory space at NIST; a 38 m2 floor area, 90 m3 volume fire test room and a 93
m2 floor area, 283 m3 fire test room. The floor plans with the location of electric
equipment are detailed in the report.
• Fire: The smoke sources were designed to mimic smoke evolution from a particular
scenario likely to be experienced in various electrical fires.
For this reason, the
sources were mainly polymeric insulating materials. Other sources included resistors,
capacitors, cables, wires and shredded paper.
• Smoke detectors: The detectors utilised were classified as VEWFD detectors and
Conventional. For the conventional detectors, both photoelectric and ionisation were
used. For the VEWFD detectors, the Alert level was set as 0.2%/ft, and the Alarm
level was 1%/ft, while the conventional detectors had a Pre-Alarm sensitivity ranging
from 0.5 – 1.3%/ft and Alarm 1 – 2.1%/ft.
• Results: The report mentions that the tabulated alarm times can be accessed in
a spreadsheet file; however, this file could not be found on the NRC website and
perhaps is only available for internal use.
NUREG 2180 may be useful for simulation purposes due to the level of detail it pro-
vides. However, as previously mentioned, the report only presents the activation times in
graphical form. This makes it diﬀicult to determine the activation of a smoke detector
accurately, and thus, it is not suitable for comparing simulation and experimental values.
Additionally, the spreadsheet containing tabulated results is not available.
3.10
Jang and Hwang, 2020
Jang and Hwang [48] tested various combustibles to build a database for smoke detectors’
obscuration threshold values. The combustibles were tested in a device called Fire Detector
Evaluator (FDE).
• Room Geometry: The specimens were tested in a FDE built by the Daejeon
University team [49] inspired in the concept developed by Grosshandler [50]. The
FDE, can measure smoke properties in real time but can be challenging to model in
FDS due to its curvature. The cross-section area of the device is 0.18 m2 (0.6 m x
0.3 m) and the drawings are depicted in the article.
• Fire: The authors tested various combustibles in the experiment: filter paper,
kerosene, heptane, toluene, polypropylene (PP), polyvinyl chloride (PVC), polyurethane
Modelling of smoke detectors in Computational Fluid Dynamics (CFD)
19
==PAGE:31==
(PU), polyethylene (PE) and polystyrene (PS).
• Smoke detectors: The study’s objective was to establish the obscuration thresholds
of the smoke detectors; thus, these values are reported for each combustible.
• Results: The results are shown in tables and graphs.
The FDE device is not easily modelled in FDS due to its curvature. Besides, it does not
represent a realistic room fire; therefore, it was chosen not to simulate this experiment.
3.11
Cleary et al. 2021
Cleary, et al. [51] recently conducted a study to assess the smoke detector activation predic-
tive capability of FDS. The experiment adds more data to current software improvement
and validation attempts, specifically regarding photoelectric detectors in flaming fires.
Cleary et al. compared the experimental results with their model in the FDS, reaching
satisfactory results with good sensitivity and selectivity.
• Room Geometry: The room geometry is 11.0 m x 7.3 m x 3.7 m, and it contains
a window 2.44 m x 1.83 m. Two ceiling configurations were also used, with and
without beams. The article also has a floor plan view of the room.
• Fire: The fires utilised are very well detailed in the article, including the fuel mixture
(propane and propene), fraction of soot/fuel, HRR and ramp time to 30 kW.
• Smoke detectors: The Pre-alarm and alarm sensitivities of photoelectric smoke de-
tectors are reported in the article with and without the 3.5 correction factor utilised
for flaming soot.
• Results: The activation times results are shown in graphs comparing the actual
experimental activation time and the corresponding FDS activation time.
This experiment was also used to compare the FDS’ detector activation predictions and
would be suitable for simulation and comparison if the experimental activation times were
available in a tabulated form.
3.12
Summary of Smoke Detection Experiments Reports
Table 3.1 summarises the parameters for the aforementioned experiments. Where a “Yes”
means that the experiment report provides enough information regarding the respective
parameter and can be and can be deemed appropriate for simulation purposes.
Table 3.2: Overview of Smoke Detection Experiment reports
Experiment
Geometry
Fire
Smoke Det.
Results
Suitable for simulation
Indiana Dunes, 1975
No
Yes
Yes
Yes
No
Bukowski and Bright, 1975
Yes
Yes
Yes
Yes
Yes
Delichatsios, 1980
Yes
No
Yes
Yes
No
Spearpoint and Smithies, 1997
No
Yes
Yes
Yes
No
Naval Research Lab, 1999
Yes
Yes
Yes
Yes
Yes
Naval Research Lab, 2000
No
Yes
Yes
Yes
No
Gottuk and McKenna, 2002
Yes
No
Yes
Yes
No
NIST Smoke Alarms, 2008
Yes
Yes
Yes
Yes
Yes
Xtralis, 2008
Yes
No
Yes
No
No
NUREG-2180, 2016
Yes
Yes
Yes
Yes
No
Jang and Hwang, 2020
No
Yes
Yes
No
No
Cleary et al. 2021
Yes
Yes
Yes
No
No
20
Modelling of smoke detectors in Computational Fluid Dynamics (CFD)
==PAGE:32==
The NIST Smoke Alarm experiments (3.7) will be simulated as they are part of the current
FDS validation process.
The simulation of the Cleary et al.
(3.11) experiment has been selected owing to its
relatively recent nature in comparison to the other potential candidate, Bukowski and
Bright (3.5), and encompasses all pertinent parameters. Furthermore, following commu-
nication with Thomas Cleary via email, he graciously provided us with the activation
times spreadsheet.
Another experiment will be designed and conducted on the premises of the company Fire
Eater A/S [52] and is further described in the following chapter.
Modelling of smoke detectors in Computational Fluid Dynamics (CFD)
21
==PAGE:33==
22
Modelling of smoke detectors in Computational Fluid Dynamics (CFD)
==PAGE:34==
4
Experimental Setup Design
By designing a new experiment, it is possible to have more control over the parameters
that would be inputted and simulated in FDS. It is possible to be sure, for example, what
were the geometry/opening conditions of the test room, as well as the fire sources and
smoke detectors utilised.
One of the first challenges to testing smoke detectors is that their activation times must
be long enough to avoid too much uncertainty in the results obtained. That is, in the case
of a sensor activating in 10 seconds, and the instruments have inaccuracies of the order
of 1 second, the error due to uncertainty is of the order of 10% of the result. If the same
instrument inaccuracy is applied to an activation time of 60 seconds, the error is only
1.6%.
As a result, a large compartment is required to ensure that the smoke travels a long
distance to reach the detector. With this objective in mind, the company Fire Eater A/S
[52] offered their testing facilities, which are located in Hillerød, Denmark, to conduct the
experiment.
Prior to the experiment, an FDS simulation was run to find the distances required to
achieve such times.
The simulation, if valid, allows testing numerous smoke detector
positions until the optimal one is found.
Information about the enclosure and fire used are some requirements to make the simu-
lation accurate; thus, a walk-through in the test facility was performed to identify and
collect the necessary data, as well as laboratory tests of fire sources.
The test enclosure, earlier simulations, and laboratory tests used to conceptualise the
experiment are all described in the following sections.
4.1
Test Room
The unventilated compartment used for the tests is shown in Figures 4.1a and 4.1b, and
its plan view is illustrated in Figure 4.2. The dimensions are 4.8 m x 4.8 m x 4.7 m
high. The walls are made of plywood, and the room is equipped with two ceiling exhaust
openings, with dimensions 1 m x 1 m. There are two doors in each opposite corner of the
room underneath the exhaustion vents.
An air inlet opening is present along the south
wall with 70 cm x 08 cm high dimensions. The inlet is displayed in Figure 4.3. Since the
tests are done under unventilated conditions, the exhaust vents and doors are kept closed
during the burning. After all the detectors have activated, the exhaust vents are opened
to set the test room back to its initial condition.
4.2
Fire Sources
Two different fire sources will be tested. Each fuel has its particular properties and, de-
pending on its state, can undergo evaporation or pyrolysis to generate a combustion flame
and, consequently, result in distinct HRR curves. Experimenting with varying parameters
of HRR makes us sure that the matching of the smoke detector model is fuel independent.
Thus, to obtain the distinct behaviour, it was chosen to use a liquid pool fire and a
smouldering cotton fire as smoke sources.
The pool fire source was selected to be n-
Heptane (n-C7H16); the cotton is from Coop Xtra, commonly found in Scandinavia. These
Modelling of smoke detectors in Computational Fluid Dynamics (CFD)
23
==PAGE:35==
(a) Room north view perspective
(b) Room outside perspective
Figure 4.1: Fire Eater A/S [52] test room
2.38
0.70
1.72
4.80
2.50
S
S
1.00
1.00
4.80
1.00
2.00
3.00
Smoke source
Thermocouple
Smoke detector
S
Data acquisition
equipment
Figure 4.2: Plan view of test room
fires were chosen since they are the tests necessary to receive the certification according
to EN 14604 standard, making it possible to find information on detector sensitivity with
ease.
The HRR can be obtained with the following expression:
HRR = ∆Heff × MLR
(4.1)
Where:
24
Modelling of smoke detectors in Computational Fluid Dynamics (CFD)
==PAGE:36==
Figure 4.3: Air inlet opening
∆Heff is the effective heat of combustion (kJ/g);
MLR is the mass loss rate (g/s).
Equation 4.1 can accurately describe the HRR of single uniform materials but is not the
case for char-forming materials such as wood which present non-constant effective heat of
combustion [53].
The fuel samples were submitted to a bench-scale test in an oxygen consumption calorime-
ter at the Fire Lab of the Technical University of Denmark to experimentally determine
the effective heat of combustion and the mass loss rate. The next sections report the
results of these tests.
4.2.1
n-Heptane Pool Fire Laboratory Test
Several metal pans of varying diameters were considered as potential containers for the
n-Heptane fuel.
Some of these pans are shown in Figure 4.4.
A 28 cm pan was also
available.
Two diameters were chosen to be tested, 16 cm and 28 cm. It was decided that a diameter
of 28 cm would have a more realistic simulation in FDS, as it is recommended that the
fire burner should contain at least 3 cells. If the pan diameter were too small, it would
require a much finer mesh to comply with this recommendation. For this reason, the 28
cm diameter test was repeated twice.
The fuel mass loss was observed to be linear in both diameters, as shown in Figures 4.5a
and 4.5b.
Due to this linearity, a linear regression model was applied to the data to obtain the mass
loss equation coeﬀicients. The two metrics used to evaluate the linear regression agreement
were the Mean Absolute Error (MAE, Equation 4.2) and the coeﬀicient of determination
(R², Equation 4.3) and their values are displayed in the Figures.
MAE =
Pn
i=1 |yi −xi|
n
(4.2)
Where:
Modelling of smoke detectors in Computational Fluid Dynamics (CFD)
25
==PAGE:37==
Figure 4.4: Pans with different diameters considered for the n-Heptane burning
yi is the prediction;
xi is the true value;
n is the total number of data points.
R2 = 1 −
Pn
i=1 (yi −xi)2
Pn
i=1 (yi −¯x)2
(4.3)
Where:
¯x is the mean of true value.
The mass loss rate (dm/dt) is then obtained by differentiating the mass loss equation over
time. Multiplying this figure by the effective heat of combustion yields an average HRR
peak during the steady state phase of the fire, providing a means of assessing the fire’s
magnitude.
0
100
200
300
400
500
Time (s)
0
20
40
60
80
100
120
Mass (g)
m = -0.2464t + 119.50
MAE = 0.57
R² = 0.9996
Mass loss of heptane -  16 cm
(a) MLR heptane - 16 cm diameter - Test 1
0
50
100
150
200
250
Time (s)
0
50
100
150
200
250
300
350
Mass (g)
m = -1.2186t + 337.43
MAE = 2.61
R² = 0.9985
Mass loss of heptane -  28 cm
(b) MLR heptane - 28 cm diameter - Test 3
Figure 4.5: Mass loss rate of n-Heptane
26
Modelling of smoke detectors in Computational Fluid Dynamics (CFD)
==PAGE:38==
The values of effective heat of combustion and combustion eﬀiciency (χ = ∆Heff
∆Hc ) were also
obtained through the oxygen consumption calorimetry, and the Energy Release plots are
presented in Figures 4.6a and 4.6b. Table 4.1 summarizes the calculated values for each
test.
0
200
400
600
800
1000
Time (s)
0
2
4
6
8
10
HRR (kW)
Qtotal = 7.99 MJ
Hc = 33.76 kJ/g
Heat Release Rate Heptane - Ø 16 cm
(a) HRR and ∆Heff Heptane - 16 cm diameter
0
50
100
150
200
250
300
350
400
Time (s)
0
10
20
30
40
HRR (kW)
Qtotal = 10.00 MJ
Hc = 31.80 kJ/g
Heat Release Rate Heptane -  28 cm
Test 1
Test 2
Average HRR
(b) HRR and ∆Heff Heptane - 28 cm diameter
Figure 4.6: Heat Release Rate and Effective Combustion of n-Heptane
Table 4.1: n-Heptane Heat Release Rates
Test
Pan diameter
[m]
Fuel surface area
[m²]
Fuel mass
[g]
Burning time
[s]
MLR
[g/s]
∆Heff
[kJ/g]
χ
[∆Heff/44.6]
Peak HRR
[kW]
1
0.16
0.0201
236.8
1030
0.2464
33.76
0.76
8.32
2
0.28
0.0616
307.0
310
1.1699
32.04
0.72
37.48
3
0.28
0.0616
322.3
297
1.2186
31.56
0.71
38.45
2 −3
0.28
0.0616
314.7
304
1.1943
31.80
0.71
37.97
4.3
Smoke Detectors
The smoke detectors utilised in the experiment are the model Protector K 9 V from the
manufacturer Esylux [54]. The device has a diameter of 106 mm, a height of 48 mm,
and photoelectric light scattering as the detection mechanism. The detectors comply with
EN 14604 standard, meaning they have already been proven to detect the smoke sources
utilised in this experiment. An illustration of this detector is shown in Figure 4.7.
Figure 4.7: Esylux Protector K 9 V [54]
However, as mentioned above, it is not common for manufacturers to provide information
regarding the optical density or obscuration threshold for alarm activation. Nevertheless,
Modelling of smoke detectors in Computational Fluid Dynamics (CFD)
27
==PAGE:39==
smoke detectors from the same model were subjected to similar to EN 14604 testing at
Lund University in Sweden. The test procedure can be read with further detailing in [55].
These tests have measured the optical densities from ignition to alarm activation for the
four types of fire required by EN 14604 (n-heptane, cotton, wood and polyurethane foam
plastic). The formula employed was the same as equation 2.4, except that the decibel per
metre unit (dB/m) is used instead; therefore, the result was multiplied by 10.
Table 4.2 shows the results of the tests performed with two different light sources and
detector orientations. The results were divided by 10 to maintain consistency with the
unit m−1 being used here.
Table 4.2: Esylux detector sensitivity tests results
Optical density [m−1]
Orientation 1
Orientation 2
Material
Infrared laser 785 nm
Red laser 650 nm
Infrared laser 785 nm
Red laser 650 nm
Avg. Infrared
Avg. Red
Polyurethane
0.274
0.321
0.293
0.349
0.349
0.335
n-Heptane
0.174
0.195
0.120
0.140
0.168
0.147
Wood
0.021
0.019
0.020
0.020
0.020
0.019
Cotton
0.016
0.016
0.021
0.021
0.018
0.019
The optical densities can be converted to obscuration per meter using the log10 in the
extinction coeﬀicient K described in equation 2.12.
Du = Klog10e
∴
K =
Du
log10e
(4.4)
Moreover, applying equation 2.13:
OBS =

1 −e−
Du
log10e

× 100
(4.5)
Conversion of optical densities can be a source of confusion due to the existence of various
terminologies that may be used interchangeably in the literature. Appendix A.1 serves to
explain these conversions, as well as demonstrate diverse methods for performing them.
Results are shown in Table 4.3 as the average obscuration per meter threshold for each
fire.
Table 4.3: Esylux detector obscuration thresholds
Obscuration threshold
[%/m]
Material
Average Red
Average Infrared
Polyurethane
53.79
47.97
n-Heptane
31.01
28.72
Wood
4.32
4.63
Cotton
4.21
4.15
Next, the ideal detector placement simulation could be carried out using the room geom-
etry, activation obscuration threshold, and fire heat release rate. As the smoke detector
models used by FDS are not real objects, they do not interact with one another and a
large number of them can be arranged in a single simulation at the height of 5 centimetres,
mimicking the chamber opening shown in Figure 4.7.
28
Modelling of smoke detectors in Computational Fluid Dynamics (CFD)
==PAGE:40==
In an effort to lessen the impact of the walls on smoke transport, a minimum distance
of 1 m from the walls was maintained in the simulation. After analysing the simulation
results, a considerable delay between the activation of the two detectors was observed,
which was the intended goal. This delay would create significant differences in the param-
eters influencing detector activation, which could be further investigated to improve the
agreement between the detection model activation time and the actual activation time of
the detectors observed in the experiment. Thus, the placement in Figure 4.2 at two and
three meters from the fire was determined to be used in the experiment.
The detectors were fixed to the ceiling and connected to the data acquisition equipment
to obtain a precise activation time.
The detectors were mounted on the ceiling and connected to the data acquisition equip-
ment to obtain a more accurate activation time. Figure 4.8 shows the detectors mounted
in their location in the experiment room.
Figure 4.8: Smoke Detectors and thermocouples mounted on the ceiling
4.4
Instrumentation
Besides the smoke detectors, additional instrumentation is required to gather more infor-
mation from the experiment. The more information gathered, the simpler it is to check if
there is an anomaly or where it comes from in the case of an unexpected result.
Hence, in order to get the heat release rate from each test, a scale similar to the one used
in the previous laboratory test was used to measure the mass loss rate in real-time. The
scale has a precision of 0.1 grams and is connected to the data acquisition equipment.
Figure 4.9a shows the setup with a 28 cm pan on top of the scale and insulation board to
protect the equipment from radiation. The pan bottom (and consequently, the fire height)
in this setup is distanced 15.5 centimetres from the floor.
Modelling of smoke detectors in Computational Fluid Dynamics (CFD)
29
==PAGE:41==
(a) Heptane fire source setup
(b) Thermocouple type K
Figure 4.9: Instrumentation utilised in the fire tests
Two thermocouples were placed approximately five centimetres to each smoke detector
to measure the temperature of the ceiling jet reaching the detector. The thermocouples
utilised are type 92-30205015-GG.V3 Guenther Polska TCs, cable type K, size 93 of 2×0.50
mm, core insulation made of fibreglass, resistant to temperature ranges 0-400°C. The two
wires welded result in a bead diameter of 1.0 mm (Figure 4.9b).
The same thermocouples were arranged in a tree directly above the fire to measure the
plume centreline temperature. Five thermocouples spaced 25 cm from each other were
placed from the ceiling until 3.45 m.
All the instrumentation was connected to the data logger equipment shown in Figure 4.10.
The logger was set to record the signals every 0.5 seconds.
4.5
Results
A total of 16 tests were conducted, and their results with the activation times are shown
in Table 4.4.
The detectors were replaced with new ones in tests 6, 10, 12 and 14 as their chamber
can accumulate smoke particles that interfere with the light scattering mechanism. This
fact can be observed by the diminishing activation times of each subsequent test using the
same detector.
The initial idea of using smouldering cotton as the smoke source was revealed to be im-
practical. Despite successfully providing the activation threshold for the smoke detector
using a 10 x 10 x 3 cm cotton sample in the sensitivity tests, the same detector failed to
activate during this larger-scale experiment. This failure to detect was attributed to the
phenomenon of smoke stratification.
[...]
the fuel. After various statistical analyses, the final results were the mean times of 49.8
and 60.1 seconds for the 28-centimetre diameter case, smoke detectors 2 and 3 meters from
the fire, respectively, and 60.4 and 123.2 seconds for the 24-centimetre diameter.
With these results in hand, the modelling in the software was addressed, leading to several
technical choices. Several input property values were calculated using literature references,
which led to uncertainties, such as the soot yield value and the detector’s obscuration
threshold.
Ultimately, upon validating the simulation results with the experiment in the final chapter,
it was observed that there are more uncertainties than those reported in the literature,
encompassing not only uncertainties regarding the measurements taken in the experiment
but also uncertainties in Key Input Parameters that propagate into the obtained results.
In conclusion, with a bias factor of 0.26 representing the model uncertainty of smoke de-
tector activation, the utility of this information for the design engineer was demonstrated,
thereby addressing the primary questions of the thesis and completing the study.
7.1
Future Work
Some topics that may be explored in future work to expand or enhance the understanding
of what has been discussed in this thesis:
• Conduct experiments wherein each Key Input Parameter identified as a potential
uncertainty in this thesis can be isolated and evaluated individually to verify the
assumptions raised in the experimental uncertainty analysis;
• Carry out experiments with greater repetition, a higher number and different types
of smoke detectors;
Modelling of smoke detectors in Computational Fluid Dynamics (CFD)
59
==PAGE:71==
• Investigate the reason for the simulation results of the 24 cm pan agreeing less with
the experiment than those of the 28 cm pan, by conducting experiments with a
smaller fire diameter-to-room area (or height) ratio in the test facility;
• Investigate models to represent the activation mechanisms within the sensor chamber
for the most common types of smoke detectors.
60
Modelling of smoke detectors in Computational Fluid Dynamics (CFD)
==PAGE:72==
Bibliography
[1]
Inspect Point. The History of the Fire Alarm System. url: https://www.inspectpoint.
com/the-history-of-the-fire-alarm-system/. (accessed: 10.10.2022).
[2]
EPS Security. A brief history of fire alarm systems. url: https://www.epssecurity.
com/news/eps-news/a-brief-history-of-fire-alarm-systems/. (accessed: 10.10.2022).
[3]
J. N. Kane. Famous First Facts. H.W. Wilson, 1997. isbn: 9780824209308.
[4]
F. R. Upton. Espacenet Patent Search. url: https://worldwide.espacenet.com/
patent/search/family/002505864/publication/US436961A?q=pn%5C%3DUS436961.
(accessed: 12.10.2022).
[5]
United States Nuclear Regulatory Commission. Backgrounder on Smoke Detectors.
url: https://www.nrc.gov/reading-rm/doc-collections/fact-sheets/smoke-detectors.
html. (accessed: 12.10.2022).
[6]
M. Runefors. “Fatal Residential Fires: Prevention and Response”. PhD thesis. Lund
University, Department of Fire Safety Engineering, 2020. isbn: 978-91-7895-396-7.
[7]
R. L. P. Custer and R. G. Bright. Fire Detection: The state-of-the-art. Technical
Note 839. U.S. Department of Commerce, National Bureau of Standards, 1974.
[8]
K.L.B.L. Xavier and V.K. Nanayakkara. “Development of an Early Fire Detection
Technique Using a Passive Infrared Sensor and Deep Neural Networks”. In: Fire
Technology (2022).
[9]
United States Nuclear Regulatory Commission. Determining the Effectiveness, Lim-
itations, and Operator Response for Very Early Warning Fire Detection Systems in
Nuclear Facilities (DELORES-VEWFIRE), Final Report NUREG 2180. 2016.
[10]
R.P. Schifiliti, R.L.P. Custer, and B.J. Meacham. “Design of Detection Systems”. In:
SFPE Handbook of Fire Protection Engineering. Ed. by M.J. Hurley. 5th edition.
New York: Springer, 2016. Chap. 40, pp. 1314–1377. isbn: 9781493925643.
[11]
NFPA 72. National Fire Alarm and Signaling Code. Quincy, MA: National Fire
Protection Association, 2022.
[12]
United States Environmental Protection Agency. Americium in Ionization Smoke
Detector. url: https://www.epa.gov/radtown/americium-ionization-smoke-detectors.
(accessed: 09.11.2022).
[13]
EnggCyclopedia. How photoelectric smoke detectors work. url: https://www.enggcyclopedia.
com/2011/11/photoelectric-smoke-detectors-work/. (accessed: 10.11.2022).
[14]
C. F. Bohren and D. R. Huffman. Absorption and Scattering of Light by Small
Particles. John Wiley Sons, Ltd, 1998. isbn: 9783527618156. doi: https://doi.org/
10.1002/9783527618156. url: https://onlinelibrary.wiley.com/doi/abs/10.1002/
9783527618156.
[15]
M. Kerker and E.M. Loebl. The Scattering of Light and Other Electromagnetic
Radiation. Elsevier Science, 2016. isbn: 9781483225241. url: https://books.google.
dk/books?id=FqhmDAAAQBAJ.
[16]
G.L. Wampfler and University of Wisconsin. Light Transmitting and Light Scattering
Properties of Smoke. U.S. Forest Service research note FPL. U.S. Forest Products
Laboratory, 1966. url: https://books.google.dk/books?id=PzjXSLNTttAC.
[17]
Gustav Mie. “Beiträge zur Optik trüber Medien, speziell kolloidaler Metallösungen”.
In: Annalen der Physik 330.3 (1908), pp. 377–445. doi: https://doi.org/10.1002/
andp.19083300302.
Modelling of smoke detectors in Computational Fluid Dynamics (CFD)
61
==PAGE:73==
[18]
R.P. Schifiliti. “Fire Detection Modeling - The Research-Application Gap”. In: 12th
International Conference on Automatic Fire Detection. National Institute of Stan-
dards and Technology. Gaithersburge, MD, 2001, pp. 529–560.
[19]
A. Mensch, H. Hamza, and T. Cleary. “Measurements and Predictions of the Aerosol
Dynamics of Smoke”. In: Suppression, Detection, Signaling Research, and Applica-
tions Conference (SUPDET 2022) , Atlanta, GA, US, 2022.
[20]
J. Geiman and D.T. Gottuk. “Alarm Thresholds For Smoke Detector Modeling”. In:
Fire Safety Science 7 (Jan. 2003), pp. 197–208. doi: 10.3801/IAFSS.FSS.7-197.
[21]
R. Peacock et al. CFAST: Consolidated Model of Fire Growth and Smoke Transport
(Version 6). User’s Guide. Special Publication (NIST SP), National Institute of
Standards and Technology, Gaithersburg, MD, 2005. doi: https://doi.org/10.6028/
nist.sp.1041.
[22]
B. P. Husted and D. Westerman. ARGOS: Theory Manual. Danish Institute of Fire
and Security Technology, 2009.
[23]
R. L. Alpert. “Calculation of response time of ceiling-mounted fire detectors”. In:
Fire Technology 8.3 (1972), pp. 181–195. doi: https://doi.org/10.1007/BF02590543.
[24]
B. Karlsson and J. G. Quintiere. Enclosure Fire Dynamics. CRC Press LLC, 2000.
isbn: 0849313007.
[25]
D. Gottuk et al. Validation of Modeling Tools for Detection Design in High Air
Flow Environments. Final Phase I Report. Quincy, MA: Fire Protection Research
Foundation, Aug. 2012.
[26]
K. McGrattan et al. Fire Dynamics Simulator, Technical Reference Guide, Volume 1:
Mathematical Model. sixth. 1018-3. NIST Special Publication. National Institute of
Standards, Technology, Gaithersburg, Maryland, USA, and VTT Technical Research
Centre of Finland, Espoo, Finland. 2022.
[27]
G. Heskestad. “Generalized characteristics of smoke entry and response for products-
of-combustion detectors”. In: Proceedings of the 7th International Conference on
Problems of Automatic Fire Detection (1975), pp. 267–310.
[28]
Cleary T. et al. “Particulate Entry Lag in Spot-Type Smoke Detectors”. In: Fire
Safety Science - Proceedings of the Sixth International Symposium. Ed. by Interna-
tional Association for Fire Safety Science. 2000, pp. 779–790.
[29]
R.J. Roby et al. A Smoke Detector Algorithm for Large Eddy Simulation Modeling.
NIST GCR 07-911. Gaithersburg, MD: National Institute of Standards and Tech-
nology, 2007.
[30]
K. McGrattan et al. Fire Dynamics Simulator User’s Guide. sixth. 1019. NIST Spe-
cial Publication. National Institute of Standards, Technology, Gaithersburg, Mary-
land, USA, and VTT Technical Research Centre of Finland, Espoo, Finland. 2022.
[31]
R.W. Bukowski, T.E. Waterman, and W.J. Christian. Detector sensitivity and siting
requirements for dwellings. Final Technical Report IITRI Project J6340, NBS GCR
75-51. Washington, DC: National Institute of Standards and Technology, 1975.
[32]
S.W. Harpe, T.E. Waterman, and W.J. Christian. Detector sensitivity and siting
requirements for dwellings - Phase 2. Final Technical Report IITRI Project J6340,
NBS GCR 77-82. Washington, DC: National Institute of Standards and Technology,
1977.
[33]
R. W. Bukowski and R. Bright. Results of Full-Scale Fire Tests With Photoelec-
tric Smoke Detectors. Final Report. Gaithersburg, MD: NIST Interagency/Internal
Report (NISTIR), National Institute of Standards and Technology, 1975.
[34]
UL 167. Standard for Smoke Detectors Combustion Products Type for Fire Protective
Signaling Systems. Northbrook, IL: Underwriters Laboratories Inc., 1976.
62
Modelling of smoke detectors in Computational Fluid Dynamics (CFD)
==PAGE:74==
[35]
UL 168. Standard for Smoke Detectors Photoelectric Type for Fire Protective Sig-
naling Systems. Northbrook, IL: Underwriters Laboratories Inc., 1976.
[36]
UL 217. Standard for Smoke Alarms. Northbrook, IL: Underwriters Laboratories
Inc., 2022.
[37]
UL 268. Standard for Smoke Detectors for Fire Alarm Systems. Northbrook, IL:
Underwriters Laboratories Inc., 2016.
[38]
M. A. Delichatsios. Categorization of cable flammability. Detection of smoldering and
flaming cable fires. Interim Report Research Project 1165-1. Norwood, MA: Factory
Mutual Research Corporation, 1980.
[39]
M.J. Spearpoint and J.N. Smithies. Practical comparison of domestic smoke alarm
sensitivity standards. Great Britain, Fire Research and Development Group, 1997.
[40]
D.T. Gottuk et al. Identification of Fire Signatures for Shipboard Multicriteria Fire
Detection Systems. Interim Report 6180-99-8386. Washington, DC: Naval Research
Laboratory, 1999.
[41]
J.T. Wong et al. Results of Multi-Criteria Fire Detection System Tests. Memorandum
6180-00-8452. Washington, DC: Naval Research Laboratory, 2000.
[42]
D.T. Gottuk and L. A. McKenna. “Spot and Aspirated Laser Smoke Detection in
Telecommunications Facilities”. In: Fire Technology 38.2 (2002), pp. 147–178. doi:
https://doi.org/10.1023/A:1014411301009.
[43]
R.W. Bukowski et al. Performance of Home Smoke Alarms Analysis of the Response
of Several Available Technologies in Residential Fire Settings. Technical Note 1455-1.
Gaithersburg, MD: National Institute of Standards and Technology, Feb. 2008.
[44]
K. McGrattan et al. Fire Dynamics Simulator, Technical Reference Guide, Volume 3:
Validation. sixth. 1018-3. NIST Special Publication. National Institute of Standards,
Technology, Gaithersburg, Maryland, USA, and VTT Technical Research Centre of
Finland, Espoo, Finland. 2022.
[45]
R.D. Peacock et al. Home Smoke Alarm Project, Two-Story Home Tests. Report of
Test FR 4017. Washington, DC: National Institute of Standards and Technology,
2005.
[46]
J. D. Averill et al. Home Smoke Alarm Project, Manufactured Home Tests. Report
of Test FR 4016. Washington, DC: National Institute of Standards and Technology,
2005.
[47]
Xtralis. IT/Server Room Fire Test Demonstrations – VESDA photoelectric conven-
tional point detectors. Technical Report. Xtralis AG, Oct. 2008.
[48]
H. Jang and C. Hwang. “Obscuration Threshold Database Construction of Smoke
Detectors for Various Combustibles”. In: Sensors 20.21 (2020). issn: 1424-8220. doi:
10.3390/s20216272.
[49]
K. Kim and C. Hwang. “Measurement of the Device Properties of a Ionization Smoke
Detector to Improve Predictive Performance of the Fire Modeling”. In: Journal of
Korean Institute of Fire Science and Engineering 27 (Aug. 2013), pp. 27–34. doi:
10.7731/KIFSE.2013.27.4.27.
[50]
W.L. Grosshandler. “Towards the development of a universal fire emulator-detector
evaluator”. In: Fire Safety Journal 29.2 (1997), pp. 113–127. issn: 0379-7112. doi:
https://doi.org/10.1016/S0379-7112(96)00031-8.
[51]
T. Cleary, A. Mensch, and G. Taylor. “Validation Study for Smoke Detector Re-
sponse in FDS”. In: 2021 AUBE/SUPDET Papers. 2021.
[52]
Fire Eater A/S. Fire Eater - Effective fire protection with Inergen. url: https://fire-
eater.com/en/. (accessed: 16.01.2023).
[53]
D. Drysdale. An Introduction to Fire Dynamics. Third Edition. John Wiley Sons,
Ltd, 2011. isbn: 9780470319031.
Modelling of smoke detectors in Computational Fluid Dynamics (CFD)
63
==PAGE:75==
[54]
Esylux. Smoke Alarm Serie PROTECTOR K 9 V. url: https : / / www . esylux .
com/products/indoor- automation/smoke- alarm/protector/er10018909. (accessed:
23.02.2023).
[55]
M. Runefors et al. Framtagning av märkning för brandvarnare – Med EURO-NCAP
som förebild. TVBB 3239. Division of Fire Safety Engineering, Feb. 2022.
[56]
Thunderhead Engineering. PyroSim. url: https://www.thunderheadeng.com/pyrosim.
(accessed: 08.03.2023).
[57]
A. Tewarson. Prediction of Fire Properties of Materials: Part 1. Aliphatic and Aro-
matic Hydrocarbons and Related Polymers. NBS GCR; NBS grant-contract report;
NBS grant contract report. U.S. Department of Commerce, National Institute of
Standards and Technology, 1986.
[58]
M.M. Khan, A. Tewarson, and M. Chaos. “Combustion Characteristics of Materials
and Generation of Fire Products”. In: SFPE Handbook of Fire Protection Engineer-
ing. Ed. by M.J. Hurley. 5th edition. New York: Springer, 2016. Chap. 36, pp. 1143–
1232. isbn: 9781493925643.
[59]
V. Babrauskas and R.D. Peacock. “Heat release rate: The single most important
variable in fire hazard”. In: Fire Safety Journal 18.3 (1992), pp. 255–272. issn: 0379-
7112. doi: https://doi.org/10.1016/0379-7112(92)90019-9.
[60]
E. Brozovsky, V. Motevalli, and R. L. P. Custer. “A first approximation method
for smoke detector placement based on design fire size, critical velocity, and detector
aerosol entry lag time”. In: Fire Technology 31.4 (1995), pp. 336–354. issn: 1572-8099.
doi: https://doi.org/10.1007/BF01039324.
[61]
J. A. Geiman. “Evaluation of Smoke Detector Response Estimation Methods”. Mas-
ter Thesis. University of Maryland, 2003.
[62]
K. McGrattan and B. Toman. “Quantifying the predictive uncertainty of complex
numerical models”. In: Metrologia 48.3 (Apr. 2011), p. 173. doi: 10.1088/0026-
1394/48/3/011.
[63]
K. McGrattan and S. Hostikka. “Verification and Validation Process of a Fire Model”.
In: Probabilistic Safety Assessment and Management 2012, Helsinki, -1, 2012-06-18
2012.
[64]
United States Nuclear Regulatory Commission. Verification and Validation of Se-
lected Fire Models for Nuclear Power Plant Applications. Final Report NUREG
1824, Supplement 1. 2016.
[65]
United States Nuclear Regulatory Commission. Report of Experimental Results for
the International Fire Model Benchmarking and Validation Exercise. Final Report
NUREG 6905. 2006.
[66]
B.J McCaffrey and M. Harkleroad. “Combustion eﬀiciency, radiation, CO and soot
yield from a variety of gaseous, liquid, and solid fueled buoyant diffusion flames”.
In: Symposium (International) on Combustion 22.1 (1989), pp. 1251–1261. issn:
0082-0784. doi: https://doi.org/10.1016/S0082-0784(89)80136-5.
[67]
G. W. Mulholland and C. Croarkin. “Specific extinction coeﬀicient of flame generated
smoke”. In: Fire and Materials 24.5 (2000), pp. 227–230.
64
Modelling of smoke detectors in Computational Fluid Dynamics (CFD)
==PAGE:76==
A
Appendix
A.1
Optical Density and Obscuration Threshold calculation
Some nomenclature and unit equivalencies.
Optical Density per unit meter [m−1] or [bel/m]:
Du ≡OD
Optical Density per unit meter in [dB/m], or Absorbance Index:
10 · OD ≡10 · Du ≡AI
Obscuration per length [%/m]:
Ou ≡OBS
The tests conducted at Lund University provided the data with the property called Ab-
sorbance Index that has unit [dB/m]. Its equation is:
AI = 10
l · log10
I0
I

It was also provided that l = 0.227 m.
Equation 2.4 of Optical Density per unit meter (Du) has unit unit [1/m] or [bel/m]:
Du = D
l = 1
l log10
I0
I

Since Equation 2.4 is not in decibel, the Optical Density Du is obtained by dividing the
Absorbance Index by 10 to convert from [decibel/m] to [bel/m] or simply [1/m].
Du = AI
10 =
1
0.227 · log10
I0
I

[m−1]
or
[bel/m]
Meaning that the l = 0.227 m is the distance between the light source and sensor
To convert the Optical Density to Obscuration per meter:
Du = D
l ∴D = Du · l
D = log10
I0
I

≡−log10
 I
I0

10−D = I
I0
Obscuration per meter (Equation 2.2)
Ou = 100
"
1 −
 I
I0
1/l#
Modelling of smoke detectors in Computational Fluid Dynamics (CFD)
65
==PAGE:77==
Ou = 100
h
1 −
 10−D1/li
Ou = 100

1 −
 10−Du
Alternatively, suppose the Optical Density (Du) is provided, and one wants to calculate
the light extinction coeﬀicient K (Equation 2.12) to utilise the same variables names as
the FDS User’s Guide. In that case, a logarithm base change is required:
Du = −1
l log10
 I
Io

K = −1
l ln
 I
Io

Changing the base of the logarithm in the first equation yields:
logb(x) = logd(x)
logd(b)
∴
ln
 I
Io

=
log10

I
Io

log10(e)
−1
l ln
 I
Io

= −1
l
log10

I
Io

log10(e)
K = −1
l
log10

I
Io

log10(e)
Klog10(e) = −1
l log10
 I
Io

Klog10(e) = Du
K =
Du
log10(e)
Knowing from Equation 2.13 that
OBS =
 1 −e−K
× 100 % per meter
Results in:
OBS =

1 −e−
Du
log10(e)

× 100
Numerical example to demonstrate the equivalencies.
Obscuration data measured by Lund University indicate a voltage signal drop from 1.511495
V to 1.405143 V during the activation of a smoke alarm. The red laser with a wavelength
of 650 nm travels a distance of 0.227 meters from the light source to the sensor. Calculate:
1. The optical density at the moment of alarm activation in decibels per meter and
bels per meter or 1/m.
66
Modelling of smoke detectors in Computational Fluid Dynamics (CFD)
==PAGE:78==
2. The light extinction coeﬀicient K at the moment of alarm activation.
3. The obscuration per meter at the moment of alarm activation.
l = 0.227 (m)
Io = 1.511 (V)
I = 1.405 (V)
1. Optical density
AI = 10
l · log10
Io
I

=
10
0.227 · log10
1.511
1.405

= 1.396 (dB/m)
Du = AI
10 = 1.396
10
= 0.140 (1/m)
2. Extinction Coeﬀicient
K = (−1)
l
· ln
 I
Io

= (−1)
0.227 · ln
1.405
1.511

= 0.321 (1/m)
Equivalency between optical densities:
Du2 = K · log10 (e) = 0.321 · log10 (2.718)
= 0.140 (1/m)
3. Obscuration per meter
Ou1 = 100 ·
 
1 −
 I
Io
( 1
l )!
= 100 ·
 
1 −
1.405
1.511
(
1
0.227)!
= 27.487 (%/m)
Ou2 = 100 ·

1 −(10)(−Du)
= 100 ·

1 −(10)(−0.140)
= 27.487 (%/m)
OBS2 =

1 −(e)
( (−Du)
log10(e)
)
· 100
=

1 −(2.718)
(
(−0.140)
log10(2.718)
)
· 100
= 27.487 (%/m)
OBS3 =

1 −(e)(−K)
· 100
=

1 −(2.718)(−0.321)
· 100
= 27.487 (%/m)
Modelling of smoke detectors in Computational Fluid Dynamics (CFD)
67
==PAGE:79==
A.2
Power Dependence Assumptions
A.2.1
HRR
Equation 2.8 denotes the mass fraction of smoke within the sensing chamber.
dYc
dt = Ye(t) −Yc(t)
L/u
The smoke detector will activate when Yc rises above a detector response threshold.
Therefore:
∆Yc ∝
1
Activation time (At)
Meaning that the higher the mass fraction difference, the lower the time to reach the
response.
It is said that ∆Yc is proportional to HRR and to the ceiling jet velocity u, which has
empirical correlations in the order of u ∝HRR1/3.
Hence:
1
At
∝HRR1/3
At ∝HRR−1/3
A.2.2
Soot yield
It is said that the mass fraction of any species is directly proportional to the product of
its yield and HRR.
Thus
∆Yc ∝HRR · ys
∆Yc ∝C · ys
1
At
∝ys
At ∝y−1
s
Here -1 is assumed due to a lack of empirical correlation in the literature.
68
Modelling of smoke detectors in Computational Fluid Dynamics (CFD)
==PAGE:80==
A.2.3
Mass extinction coefficient and Obscuration threshold
From equation 2.13 :
OBS =
 1 −e−KmρYc
ln 1 −ln OBS = −KmρYc
Yc = −ln 1 + ln OBS
Kmρ
Thus
∆Yc ∝(Kmρ)−1
and
∆Yc ∝OBS
Modelling of smoke detectors in Computational Fluid Dynamics (CFD)
69
==PAGE:81==
Technical
University of
Denmark
Koppels Allé, Building 404
2800 Kgs. Lyngby
Tlf. 4525 1700
https://construct.dtu.dk/
